geometry optimzed in LAMMPS
_audit_creation_date              2020-12-01 
_audit_creation_method            'lammps2cif' 
_symmetry_space_group_name_H-M    'P1' 
_symmetry_Int_Tables_number       1 
_symmetry_cell_setting            triclinic 
loop_ 
_symmetry_equiv_pos_as_xyz 
  x,y,z 
_cell_length_a                    49.66366691 
_cell_length_b                    32.97906090979075 
_cell_length_c                    116.62242946622871 
_cell_angle_alpha                 89.98026128781413 
_cell_angle_beta                  89.74034273020848 
_cell_angle_gamma                 90.04339695554876 
loop_ 
_atom_site_label 
_atom_site_type_symbol 
_atom_site_fract_x 
_atom_site_fract_y 
_atom_site_fract_z 
_atom_site_charge 
O1          O  0.73944900  0.05636650  0.18720874    -0.73000
O2          O  0.80573697  0.98560798  0.18121257    -0.74000
O3          O  0.77092659  0.03640199  0.16745830    -0.62600
O4          O  0.77479661  0.00966243  0.20071990    -0.71000
O5          O  0.74657576  0.95841785  0.19844516    -0.70600
O6          O  0.74564428  0.98241135  0.16402753    -0.61800
O7          O  0.77834647  0.93305665  0.17891940    -0.74300
O8          O  0.71436577  0.00240405  0.18338998    -0.73100
Cu9        Cu  0.77384680  0.02372828  0.18416891     1.04600
Cu10       Cu  0.74557159  0.96702472  0.18104335     1.04300
C11         C  0.71632764  0.03918458  0.18652673     0.93200
C12         C  0.80205686  0.94760507  0.17943219     0.92300
C13         C  0.75713716  0.01504025  0.16051436     0.84500
C14         C  0.75959523  0.98255111  0.20505107     0.90700
O15         O  0.70846366  0.94196810  0.29222098    -0.73000
O16         O  0.69847836  0.89632762  0.32366667    -0.74000
O17         O  0.67318374  0.95979190  0.31097325    -0.62600
O18         O  0.73444121  0.88068779  0.30501097    -0.71000
O19         O  0.76259190  0.92687800  0.31194669    -0.70600
O20         O  0.70299439  0.00352535  0.31740785    -0.61800
O21         O  0.72786970  0.94006891  0.33066759    -0.74300
O22         O  0.73769014  0.98720837  0.29869232    -0.73100
Cu23       Cu  0.70249059  0.91822088  0.30776172     1.04600
Cu24       Cu  0.73361006  0.96606645  0.31495776     1.04300
C25         C  0.72511277  0.97071742  0.29034499     0.93200
C26         C  0.71235947  0.90934229  0.33206982     0.92300
C27         C  0.67875887  0.99503412  0.31500391     0.84500
C28         C  0.75832371  0.89219621  0.30755219     0.90700
O29         O  0.98860908  0.66385405  0.16056512    -0.73000
O30         O  0.99227591  0.70371446  0.19402655    -0.74000
O31         O  0.02060871  0.64756143  0.18007983    -0.62600
O32         O  0.96161755  0.72458722  0.17401617    -0.71000
O33         O  0.93108278  0.68190285  0.18059160    -0.70600
O34         O  0.99184435  0.59814155  0.18430812    -0.61800
O35         O  0.96486272  0.65361048  0.19865290    -0.74300
O36         O  0.95654418  0.62132679  0.16597302    -0.73100
Cu37       Cu  0.99167202  0.68661872  0.17694881     1.04600
Cu38       Cu  0.95989369  0.63716977  0.18248148     1.04300
C39         C  0.97214880  0.63500799  0.15817407     0.93200
C40         C  0.97953076  0.68324713  0.20172183     0.92300
C41         C  0.01605825  0.61122266  0.18312240     0.84500
C42         C  0.93739406  0.71747163  0.17693356     0.90700
O43         O  0.94505397  0.75293418  0.30904636    -0.73000
O44         O  0.01190759  0.69245317  0.31484708    -0.74000
O45         O  0.97799796  0.74461783  0.32854120    -0.62600
O46         O  0.97892666  0.70483685  0.29527585    -0.71000
O47         O  0.00450545  0.75766243  0.29075162    -0.70600
O48         O  0.00067624  0.79875655  0.32275628    -0.61800
O49         O  0.03688585  0.74592715  0.31061409    -0.74300
O50         O  0.96737903  0.80650115  0.30275128    -0.73100
Cu51       Cu  0.97783187  0.72180713  0.31216729     1.04600
Cu52       Cu  0.00333857  0.77909095  0.30662189     1.04300
C53         C  0.94503813  0.78771686  0.30435382     0.93200
C54         C  0.03501418  0.70857726  0.31361627     0.92300
C55         C  0.98827755  0.77952798  0.33065957     0.84500
C56         C  0.99127976  0.72637971  0.28774256     0.90700
O57         O  0.43584727  0.17648509  0.17959563    -0.73000
O58         O  0.50349227  0.11037950  0.18620279    -0.74000
O59         O  0.47363349  0.17102225  0.19788514    -0.62600
O60         O  0.46482450  0.11289831  0.16829352    -0.71000
O61         O  0.48927936  0.15948998  0.15935423    -0.70600
O62         O  0.49952829  0.21795684  0.18983613    -0.61800
O63         O  0.52728492  0.15780245  0.17718473    -0.74300
O64         O  0.46174574  0.22291847  0.17168727    -0.73100
Cu65       Cu  0.46849739  0.14108909  0.18327083     1.04600
Cu66       Cu  0.49518842  0.19118360  0.17417170     1.04300
C67         C  0.43838788  0.21116777  0.17471290     0.93200
C68         C  0.52611261  0.12448039  0.18265195     0.92300
C69         C  0.48815676  0.20275031  0.19873938     0.84500
C70         C  0.47614743  0.12596813  0.15919995     0.90700
O71         O  0.45204283  0.25622389  0.30547891    -0.73000
O72         O  0.52067352  0.19956304  0.30990445    -0.74000
O73         O  0.48394090  0.24021774  0.32467935    -0.62600
O74         O  0.48902742  0.21916264  0.29031505    -0.71000
O75         O  0.51204834  0.27637765  0.28839259    -0.70600
O76         O  0.50508452  0.29868174  0.32180353    -0.61800
O77         O  0.54382619  0.25679751  0.30802335    -0.74300
O78         O  0.47235534  0.31485222  0.30224111    -0.73100
Cu79       Cu  0.48580472  0.22675824  0.30766357     1.04600
Cu80       Cu  0.50921289  0.28872816  0.30504267     1.04300
C81         C  0.45073285  0.29364240  0.30296600     0.93200
C82         C  0.54298304  0.21849373  0.30993483     0.92300
C83         C  0.49334710  0.27374397  0.32851694     0.84500
C84         C  0.50087305  0.24544318  0.28392869     0.90700
O85         O  0.23549407  0.45156067  0.16384829    -0.73000
O86         O  0.23773015  0.43115761  0.19861050    -0.74000
O87         O  0.20320522  0.47018040  0.18311910    -0.62600
O88         O  0.27015310  0.40760692  0.17901444    -0.71000
O89         O  0.29536066  0.46269989  0.18082857    -0.70600
O90         O  0.22590052  0.52696106  0.18617241    -0.61800
O91         O  0.26293162  0.48629010  0.20033400    -0.74300
O92         O  0.25902370  0.50777420  0.16675845    -0.73100
Cu93       Cu  0.23602987  0.43802110  0.18105224     1.04600
Cu94       Cu  0.26179623  0.49776730  0.18357805     1.04300
C95         C  0.24647970  0.48412389  0.15999385     0.93200
C96         C  0.24951367  0.45760940  0.20494140     0.92300
C97         C  0.20350829  0.50756379  0.18572902     0.84500
C98         C  0.29321672  0.42447062  0.17895073     0.90700
O99         O  0.20366539  0.50280040  0.31777073    -0.73000
O100        O  0.26529558  0.42808106  0.31399662    -0.74000
O101        O  0.23853202  0.48248749  0.29915906    -0.62600
O102        O  0.22986487  0.44405484  0.33253698    -0.71000
O103        O  0.20205613  0.39636808  0.32637794    -0.70600
O104        O  0.21027363  0.43384388  0.29414393    -0.61800
O105        O  0.23834597  0.37861014  0.30808542    -0.74300
O106        O  0.17494517  0.45546671  0.31262786    -0.73100
Cu107      Cu  0.23515440  0.46618464  0.31611988     1.04600
Cu108      Cu  0.20531840  0.41456196  0.31015667     1.04300
C109        C  0.17956377  0.49213234  0.31572614     0.93200
C110        C  0.26195441  0.39220845  0.31027727     0.92300
C111        C  0.22600185  0.46275159  0.29133417     0.84500
C112        C  0.21539850  0.41242605  0.33449339     0.90700
O113        O  0.22003766  0.87553914  0.78990004    -0.73000
O114        O  0.21506601  0.83632897  0.82220212    -0.74000
O115        O  0.18124389  0.88722697  0.80776152    -0.62600
O116        O  0.25326483  0.82832877  0.80422681    -0.71000
O117        O  0.27321986  0.88458210  0.81032228    -0.70600
O118        O  0.20335411  0.94176540  0.81367986    -0.61800
O119        O  0.23528505  0.89145550  0.82852870    -0.74300
O120        O  0.24056290  0.93155076  0.79545695    -0.73100
Cu121      Cu  0.21650071  0.85494799  0.80588358     1.04600
Cu122      Cu  0.23876056  0.91417795  0.81225415     1.04300
C123        C  0.23118960  0.90923097  0.78740327     0.93200
C124        C  0.22500836  0.85643692  0.83050810     0.92300
C125        C  0.18140398  0.92461014  0.81085066     0.84500
C126        C  0.27461052  0.84835296  0.80660737     0.90700
O127        O  0.25222851  0.92608678  0.69443820    -0.73000
O128        O  0.25774463  0.95863078  0.66064967    -0.74000
O129        O  0.29272493  0.92103775  0.67691672    -0.62600
O130        O  0.21761956  0.95952430  0.67796821    -0.71000
O131        O  0.23083873  0.02096736  0.68334932    -0.70600
O132        O  0.30836176  0.98157111  0.68194874    -0.61800
O133        O  0.27188491  0.01925679  0.66623596    -0.74300
O134        O  0.26768575  0.98695923  0.69900190    -0.73100
Cu135      Cu  0.25476644  0.93912228  0.67727150     1.04600
Cu136      Cu  0.27031778  0.00429815  0.68275818     1.04300
C137        C  0.25813559  0.95275626  0.70204415     0.93200
C138        C  0.26508267  0.99500351  0.65825771     0.92300
C139        C  0.31232445  0.94428554  0.67937126     0.84500
C140        C  0.21208301  0.99541552  0.68115770     0.90700
O141        O  0.53184485  0.75784692  0.79255159    -0.73000
O142        O  0.52122225  0.78098245  0.82547380    -0.74000
O143        O  0.56045168  0.73570224  0.81292043    -0.62600
O144        O  0.49149600  0.79858716  0.80545042    -0.71000
O145        O  0.46902652  0.74115688  0.80802594    -0.70600
O146        O  0.53546790  0.68019257  0.81406201    -0.61800
O147        O  0.49814878  0.72416158  0.82812492    -0.74300
O148        O  0.50677610  0.70232223  0.79364497    -0.73100
Cu149      Cu  0.52721485  0.77010519  0.80904960     1.04600
Cu150      Cu  0.50168788  0.70981459  0.81104464     1.04300
C151        C  0.51990936  0.72848872  0.78765800     0.93200
C152        C  0.50789973  0.75749169  0.83202131     0.92300
C153        C  0.55834890  0.69737956  0.81468732     0.84500
C154        C  0.46926063  0.77869927  0.80559313     0.90700
O155        O  0.52465472  0.63363264  0.68153608    -0.73000
O156        O  0.46219618  0.71157347  0.68168734    -0.74000
O157        O  0.48683356  0.65926938  0.66479736    -0.62600
O158        O  0.49936418  0.68381440  0.69788960    -0.71000
O159        O  0.52343360  0.73777353  0.69337142    -0.70600
O160        O  0.51591751  0.70667847  0.65949778    -0.61800
O161        O  0.48901153  0.75973701  0.67514380    -0.74300
O162        O  0.55157385  0.68588948  0.67778964    -0.73100
Cu163      Cu  0.49229142  0.67031199  0.68156425     1.04600
Cu164      Cu  0.52100520  0.72420850  0.67622717     1.04300
C165        C  0.54819731  0.64844221  0.68007944     0.93200
C166        C  0.46600447  0.74858699  0.67881458     0.92300
C167        C  0.49959254  0.67801965  0.65687145     0.84500
C168        C  0.51219854  0.71537199  0.70101185     0.90700
O169        O  0.80963703  0.43605118  0.67635114    -0.73000
O170        O  0.74877135  0.51774114  0.68090654    -0.74000
O171        O  0.78178447  0.47123763  0.69564182    -0.62600
O172        O  0.77750782  0.48695808  0.66187006    -0.71000
O173        O  0.74768120  0.43726886  0.66019348    -0.70600
O174        O  0.75133647  0.42203647  0.69498387    -0.61800
O175        O  0.72008710  0.46644204  0.67940143    -0.74300
O176        O  0.77876357  0.38777487  0.67572632    -0.73100
Cu177      Cu  0.78066952  0.47951541  0.67871413     1.04600
Cu178      Cu  0.74866245  0.42640513  0.67751418     1.04300
C179        C  0.80336816  0.39843738  0.67538265     0.93200
C180        C  0.72461057  0.50397147  0.68086767     0.92300
C181        C  0.76628322  0.44625802  0.70076424     0.84500
C182        C  0.76110275  0.46670875  0.65576398     0.90700
O183        O  0.77831304  0.40566295  0.80749316    -0.73000
O184        O  0.71823048  0.48097234  0.81436769    -0.74000
O185        O  0.74546116  0.41776144  0.82715831    -0.62600
O186        O  0.75056495  0.46477853  0.79456678    -0.71000
O187        O  0.72217697  0.41726807  0.78910018    -0.70600
O188        O  0.71522783  0.37432878  0.82097812    -0.61800
O189        O  0.68820971  0.43642378  0.80844772    -0.74300
O190        O  0.75004213  0.35756873  0.80190011    -0.73100
Cu191      Cu  0.74900586  0.44396969  0.81114464     1.04600
Cu192      Cu  0.71781422  0.39493621  0.80491462     1.04300
C193        C  0.77413469  0.37026436  0.80354768     0.93200
C194        C  0.69375553  0.47158103  0.81250753     0.92300
C195        C  0.72979581  0.38747650  0.82912155     0.84500
C196        C  0.73753024  0.44696608  0.78654372     0.90700
O197        O  0.98847309  0.11906399  0.66170882    -0.73000
O198        O  0.98907093  0.15752777  0.69526805    -0.74000
O199        O  0.02063221  0.10752017  0.68113499    -0.62600
O200        O  0.95718972  0.17566801  0.67550392    -0.71000
O201        O  0.92898232  0.12672629  0.68053092    -0.70600
O202        O  0.99506231  0.05442724  0.68549791    -0.61800
O203        O  0.96236156  0.10561489  0.69937632    -0.74300
O204        O  0.95984476  0.07163916  0.66691281    -0.73100
Cu205      Cu  0.98953468  0.14196895  0.67819206     1.04600
Cu206      Cu  0.96051098  0.08796355  0.68321638     1.04300
C207        C  0.97479833  0.08714299  0.65922542     0.93200
C208        C  0.97666307  0.13536234  0.70266483     0.92300
C209        C  0.01837477  0.07077212  0.68418463     0.84500
C210        C  0.93324322  0.16333218  0.67725311     0.90700
O211        O  0.00693174  0.19904179  0.79140934    -0.73000
O212        O  0.01408664  0.23436659  0.82383890    -0.74000
O213        O  0.04086156  0.17439466  0.80967418    -0.62600
O214        O  0.97944521  0.25562662  0.80543958    -0.71000
O215        O  0.95074595  0.20625179  0.80980435    -0.70600
O216        O  0.01099372  0.12985968  0.81606893    -0.61800
O217        O  0.98229151  0.19150797  0.82923196    -0.74300
O218        O  0.97957787  0.14901738  0.79637199    -0.73100
Cu219      Cu  0.01149362  0.21736866  0.80747242     1.04600
Cu220      Cu  0.98005830  0.16735877  0.81312070     1.04300
C221        C  0.99239439  0.16883684  0.78861006     0.93200
C222        C  0.99777224  0.22160103  0.83149016     0.92300
C223        C  0.03513304  0.13851160  0.81318862     0.84500
C224        C  0.95528270  0.24270875  0.80679070     0.90700
O225        O  0.79405523  0.63172705  0.55544024    -0.73000
O226        O  0.71855699  0.58592348  0.55213919    -0.74000
O227        O  0.75482041  0.62704501  0.53794173    -0.62600
O228        O  0.75827944  0.58728775  0.57011631    -0.71000
O229        O  0.73974709  0.64322329  0.57679810    -0.70600
O230        O  0.73741370  0.68550813  0.54372517    -0.61800
O231        O  0.70229026  0.64433091  0.55852803    -0.74300
O232        O  0.77578101  0.68855976  0.56207111    -0.73100
Cu233      Cu  0.75715566  0.60597656  0.55380735     1.04600
Cu234      Cu  0.73843339  0.66749382  0.56057847     1.04300
C235        C  0.79639856  0.66825558  0.55900009     0.93200
C236        C  0.69857888  0.60955511  0.55410718     0.92300
C237        C  0.74433614  0.66126847  0.53561749     0.84500
C238        C  0.74874500  0.60730705  0.57855752     0.90700
O239        O  0.70365369  0.77330891  0.41530473    -0.73000
O240        O  0.70900648  0.73454252  0.44748333    -0.74000
O241        O  0.74172118  0.78343861  0.43313203    -0.62600
O242        O  0.67111064  0.72151561  0.42939560    -0.71000
O243        O  0.69509126  0.66847565  0.42395860    -0.70600
O244        O  0.76323578  0.72798711  0.42742542    -0.61800
O245        O  0.73109692  0.67953902  0.44232309    -0.74300
O246        O  0.72643793  0.71974962  0.40914058    -0.73100
Cu247      Cu  0.70551692  0.75504260  0.43152719     1.04600
Cu248      Cu  0.72968487  0.69708280  0.42548240     1.04300
C249        C  0.71458359  0.75359094  0.40713112     0.93200
C250        C  0.72050983  0.70143412  0.45022403     0.92300
C251        C  0.76365128  0.76453707  0.43089305     0.84500
C252        C  0.67231257  0.68449595  0.42606256     0.90700
O253        O  0.00851572  0.89603084  0.44748431    -0.73000
O254        O  0.00536119  0.89034773  0.41367626    -0.74000
O255        O  0.03844074  0.93348275  0.42951382    -0.62600
O256        O  0.97440212  0.85659203  0.43180038    -0.71000
O257        O  0.94776048  0.91059292  0.43109148    -0.70600
O258        O  0.00929103  0.98447836  0.42962558    -0.61800
O259        O  0.97768334  0.94305136  0.41284941    -0.74300
O260        O  0.97950495  0.94705113  0.44780583    -0.73100
Cu261      Cu  0.00781901  0.89240595  0.43059484     1.04600
Cu262      Cu  0.97779833  0.94833696  0.43031514     1.04300
C263        C  0.99347669  0.92023777  0.45308326     0.93200
C264        C  0.99059279  0.91425183  0.40788720     0.92300
C265        C  0.03339779  0.97159828  0.42926943     0.84500
C266        C  0.95086523  0.87255113  0.43200994     0.90700
O267        O  0.00137920  0.90948005  0.57995325    -0.73000
O268        O  0.00950477  0.87379873  0.54634902    -0.74000
O269        O  0.03819611  0.92477450  0.56198671    -0.62600
O270        O  0.97356638  0.85521470  0.56482427    -0.71000
O271        O  0.94713809  0.90474597  0.55896335    -0.70600
O272        O  0.01405797  0.97657516  0.55608751    -0.61800
O273        O  0.98369186  0.92588215  0.54154160    -0.74300
O274        O  0.97595428  0.96029933  0.57398927    -0.73100
Cu275      Cu  0.00647981  0.88903017  0.56349792     1.04600
Cu276      Cu  0.97925784  0.94367907  0.55754041     1.04300
C277        C  0.98778028  0.94169029  0.58211588     0.93200
C278        C  0.99736366  0.89490835  0.53868710     0.92300
C279        C  0.03707823  0.96117170  0.55845066     0.84500
C280        C  0.95036491  0.86745138  0.56181618     0.90700
O281        O  0.19035646  0.18788700  0.43017107    -0.73000
O282        O  0.25154799  0.26060671  0.43464323    -0.74000
O283        O  0.22045254  0.21276797  0.44941301    -0.62600
O284        O  0.22100810  0.23927573  0.41523928    -0.71000
O285        O  0.19420403  0.29139473  0.41891975    -0.70600
O286        O  0.19072250  0.26183490  0.45210724    -0.61800
O287        O  0.22451345  0.31253942  0.43861142    -0.74300
O288        O  0.16135431  0.23831889  0.43232888    -0.73100
Cu289      Cu  0.22169329  0.22330868  0.43221731     1.04600
Cu290      Cu  0.19160843  0.27780322  0.43557480     1.04300
C291        C  0.16625249  0.20073229  0.43053311     0.93200
C292        C  0.24809276  0.29726740  0.43760443     0.92300
C293        C  0.20572960  0.23402314  0.45617481     0.84500
C294        C  0.20812881  0.27070779  0.41180989     0.90700
O295        O  0.28909212  0.20440531  0.56054763    -0.73000
O296        O  0.23364029  0.11401018  0.55779710    -0.74000
O297        O  0.25352470  0.17561640  0.54336053    -0.62600
O298        O  0.27043130  0.13930763  0.57492243    -0.71000
O299        O  0.23804889  0.17771862  0.58219907    -0.70600
O300        O  0.22255812  0.21846091  0.54974710    -0.61800
O301        O  0.20281859  0.15692069  0.56441085    -0.74300
O302        O  0.25728756  0.24398008  0.56787672    -0.73100
Cu303      Cu  0.26290489  0.15712728  0.55896723     1.04600
Cu304      Cu  0.22925293  0.20097779  0.56634483     1.04300
C305        C  0.28142350  0.23893228  0.56441548     0.93200
C306        C  0.20927451  0.12204541  0.56065651     0.92300
C307        C  0.23528144  0.20174521  0.54139066     0.84500
C308        C  0.25574495  0.14967967  0.58340289     0.90700
O309        O  0.47514012  0.50706001  0.57790096    -0.73000
O310        O  0.47418096  0.46461282  0.54486535    -0.74000
O311        O  0.50701008  0.51594240  0.55819277    -0.62600
O312        O  0.44138242  0.45150290  0.56473455    -0.71000
O313        O  0.41521002  0.50219331  0.55912733    -0.70600
O314        O  0.48249617  0.56978477  0.55350555    -0.61800
O315        O  0.45006733  0.51825239  0.54009374    -0.74300
O316        O  0.44813188  0.55688790  0.57270785    -0.73100
Cu317      Cu  0.47508699  0.48284195  0.56168445     1.04600
Cu318      Cu  0.44791941  0.53846662  0.55625785     1.04300
C319        C  0.46310920  0.54049431  0.58027261     0.93200
C320        C  0.46261454  0.48611190  0.53715068     0.92300
C321        C  0.50532688  0.55248344  0.55479949     0.84500
C322        C  0.41807996  0.46533209  0.56237741     0.90700
O323        O  0.50252238  0.48691808  0.42395693    -0.73000
O324        O  0.43630707  0.42351824  0.42857418    -0.74000
O325        O  0.46771754  0.47213910  0.44314232    -0.62600
O326        O  0.47111705  0.43304105  0.40965138    -0.71000
O327        O  0.49586358  0.38177037  0.41558871    -0.70600
O328        O  0.49241887  0.41891259  0.44800428    -0.61800
O329        O  0.45907461  0.36970373  0.43447768    -0.74300
O330        O  0.52802929  0.43526833  0.42928259    -0.73100
Cu331      Cu  0.46878515  0.45582927  0.42606828     1.04600
Cu332      Cu  0.49484420  0.39961348  0.43192408     1.04300
C333        C  0.52567814  0.47231499  0.42607060     0.93200
C334        C  0.43665699  0.38816627  0.43287963     0.92300
C335        C  0.47859779  0.44978474  0.45087485     0.84500
C336        C  0.48331693  0.39951804  0.40752520     0.90700
O337        O  0.20363092  0.74094861  0.91660161    -0.73000
O338        O  0.19875970  0.71379128  0.94938349    -0.74000
O339        O  0.23298727  0.76478824  0.93632643    -0.62600
O340        O  0.17116928  0.68730240  0.92949591    -0.71000
O341        O  0.20160075  0.63913224  0.92680948    -0.70600
O342        O  0.26163169  0.71387739  0.93385138    -0.61800
O343        O  0.22872180  0.66448533  0.94754931    -0.74300
O344        O  0.23428040  0.69451563  0.91330187    -0.73100
Cu345      Cu  0.20057692  0.72817987  0.93302069     1.04600
Cu346      Cu  0.23240011  0.67587454  0.93024331     1.04300
C347        C  0.22014289  0.72455964  0.90971032     0.93200
C348        C  0.21386748  0.68721592  0.95391110     0.92300
C349        C  0.25709748  0.75079132  0.93626961     0.84500
C350        C  0.17708516  0.65053593  0.92703243     0.90700
O351        O  0.27879604  0.67861476  0.06153144    -0.73000
O352        O  0.22503635  0.58830590  0.05499931    -0.74000
O353        O  0.24783790  0.65277932  0.04239411    -0.62600
O354        O  0.25677191  0.61111532  0.07433642    -0.71000
O355        O  0.22335651  0.64999128  0.08045703    -0.70600
O356        O  0.21503332  0.69383430  0.04796487    -0.61800
O357        O  0.19274198  0.62996992  0.06094970    -0.74300
O358        O  0.24514386  0.71759527  0.06751616    -0.73100
Cu359      Cu  0.25343282  0.63143993  0.05817620     1.04600
Cu360      Cu  0.21807744  0.67433318  0.06448643     1.04300
C361        C  0.27000732  0.71287111  0.06515696     0.93200
C362        C  0.20011298  0.59599799  0.05682959     0.92300
C363        C  0.22975102  0.67879916  0.03997791     0.84500
C364        C  0.24069793  0.62196041  0.08233391     0.90700
O365        O  0.69482589  0.28003787  0.91456057    -0.73000
O366        O  0.69235305  0.26061309  0.94858008    -0.74000
O367        O  0.72782159  0.30244948  0.93336682    -0.62600
O368        O  0.65946351  0.23516648  0.92970918    -0.71000
O369        O  0.68532036  0.18079271  0.92775482    -0.70600
O370        O  0.75140495  0.24594052  0.93077763    -0.61800
O371        O  0.71784262  0.20603184  0.94662817    -0.74300
O372        O  0.71899256  0.22440593  0.91196464    -0.73100
Cu373      Cu  0.69257480  0.27143491  0.93160730     1.04600
Cu374      Cu  0.71903494  0.21230327  0.92918061     1.04300
C375        C  0.70804833  0.25654442  0.90790149     0.93200
C376        C  0.70560743  0.23160506  0.95309878     0.92300
C377        C  0.75041202  0.28382693  0.93271613     0.84500
C378        C  0.66203807  0.19682097  0.92823723     0.90700
O379        O  0.72218612  0.17858790  0.08051351    -0.73000
O380        O  0.71023301  0.21692867  0.04751906    -0.74000
O381        O  0.68683279  0.15825232  0.06251921    -0.62600
O382        O  0.74528719  0.23989917  0.06568932    -0.71000
O383        O  0.77501659  0.19642813  0.05871520    -0.70600
O384        O  0.71595680  0.11155337  0.05662267    -0.61800
O385        O  0.73901501  0.17000240  0.04160572    -0.74300
O386        O  0.75271613  0.13528821  0.07403908    -0.73100
Cu387      Cu  0.71520542  0.20004280  0.06431193     1.04600
Cu388      Cu  0.74680875  0.15180710  0.05759145     1.04300
C389        C  0.73869474  0.14941218  0.08233630     0.93200
C390        C  0.72286455  0.19895735  0.03935363     0.92300
C391        C  0.69189915  0.12228829  0.05917433     0.84500
C392        C  0.76906893  0.23225021  0.06214651     0.90700
O393        O  0.50032995  0.87787282  0.91746062    -0.73000
O394        O  0.49323494  0.91127117  0.94992462    -0.74000
O395        O  0.46277211  0.86015500  0.93570037    -0.62600
O396        O  0.52891564  0.93398104  0.93160409    -0.71000
O397        O  0.50076739  0.98247677  0.92642738    -0.70600
O398        O  0.43753979  0.91168255  0.93000412    -0.61800
O399        O  0.46582088  0.96161133  0.94524406    -0.74300
O400        O  0.47303182  0.92597675  0.91145754    -0.73100
Cu401      Cu  0.49740396  0.89416326  0.93377290     1.04600
Cu402      Cu  0.46862643  0.94738453  0.92803531     1.04300
C403        C  0.48717879  0.89415476  0.90935554     0.93200
C404        C  0.47736363  0.93963351  0.95289650     0.92300
C405        C  0.43947965  0.87600418  0.93397580     0.84500
C406        C  0.52465706  0.97078481  0.92849093     0.90700
O407        O  0.47290908  0.94385168  0.08037829    -0.73000
O408        O  0.46926761  0.92140043  0.04603999    -0.74000
O409        O  0.50669962  0.95670766  0.06131588    -0.62600
O410        O  0.43523995  0.90583873  0.06532316    -0.71000
O411        O  0.41425470  0.96426723  0.06245753    -0.70600
O412        O  0.48830614  0.01594565  0.05786912    -0.61800
O413        O  0.44928185  0.98068472  0.04353422    -0.74300
O414        O  0.45345834  0.00331135  0.07713909    -0.73100
Cu415      Cu  0.47153313  0.92988608  0.06339965     1.04600
Cu416      Cu  0.45051449  0.99314206  0.06023332     1.04300
C417        C  0.46445698  0.97821472  0.08399942     0.93200
C418        C  0.45925204  0.94829698  0.03934769     0.92300
C419        C  0.50942503  0.99378843  0.05867544     0.84500
C420        C  0.41349566  0.92583966  0.06413918     0.90700
O421        O  0.00171450  0.38973661  0.94726632    -0.73000
O422        O  0.00015466  0.35026457  0.91506579    -0.74000
O423        O  0.03758123  0.39656791  0.92797556    -0.62600
O424        O  0.96403974  0.34573452  0.93400240    -0.71000
O425        O  0.94534979  0.40386073  0.92869645    -0.70600
O426        O  0.01658072  0.45290935  0.92290624    -0.61800
O427        O  0.98015734  0.40692591  0.90938829    -0.74300
O428        O  0.98240726  0.44740828  0.94242405    -0.73100
Cu429      Cu  0.00161946  0.36860686  0.93127045     1.04600
Cu430      Cu  0.98049249  0.42974845  0.92566306     1.04300
C431        C  0.99227057  0.42420577  0.95015289     0.93200
C432        C  0.98994541  0.37183740  0.90713575     0.92300
C433        C  0.03835170  0.43323589  0.92433478     0.84500
C434        C  0.94311083  0.36757023  0.93228605     0.90700
O435        O  0.97274278  0.46607887  0.07705993    -0.73000
O436        O  0.97438014  0.42821414  0.04358408    -0.74000
O437        O  0.00996145  0.46758428  0.05848704    -0.62600
O438        O  0.93631706  0.42238354  0.06228199    -0.71000
O439        O  0.91772694  0.48039123  0.05681764    -0.70600
O440        O  0.99340280  0.52668158  0.05285226    -0.61800
O441        O  0.95635919  0.48718063  0.03867103    -0.74300
O442        O  0.95499561  0.52423683  0.07130676    -0.73100
Cu443      Cu  0.97371593  0.44397201  0.06061177     1.04600
Cu444      Cu  0.95483286  0.50663868  0.05480746     1.04300
C445        C  0.96433360  0.50202802  0.07931692     0.93200
C446        C  0.96706122  0.45351652  0.03583558     0.92300
C447        C  0.01355559  0.50315114  0.05454191     0.84500
C448        C  0.91546605  0.44322315  0.05992463     0.90700
C449        C  0.97265257  0.44650311  0.02344325     0.01300
C450        C  0.96326712  0.41172851  0.01763331     0.04100
C451        C  0.96584171  0.40905377  0.00557215    -0.12000
C452        C  0.97887196  0.44019986  0.99935766     0.23400
C453        C  0.98988776  0.47343568  0.00523712    -0.12500
C454        C  0.98664888  0.47679755  0.01717047     0.04800
C455        C  0.98261653  0.43742937  0.98670697     0.27200
C456        C  0.00479248  0.41614921  0.98224477    -0.13200
C457        C  0.00950539  0.41519431  0.97034009     0.05300
C458        C  0.99165487  0.43497254  0.96266290    -0.09200
C459        C  0.97143348  0.46055159  0.96735081     0.06100
C460        C  0.96624808  0.46024558  0.97926979    -0.13600
Br461      Br  0.00994212  0.51416026  0.99684277    -0.05600
Br462      Br  0.94697502  0.36783684  0.02608054     0.00000
Br463      Br  0.04227321  0.39005931  0.96490176     0.00400
Br464      Br  0.93646242  0.49080905  0.98551679    -0.04000
Br465      Br  0.00301215  0.52235629  0.02485543     0.00500
Br466      Br  0.95132119  0.36309363  0.99746281    -0.03300
Br467      Br  0.02897464  0.38864484  0.99259419    -0.04100
Br468      Br  0.95219277  0.49900741  0.95796654    -0.00200
C469        C  0.47138419  0.94399520  0.96534885     0.01300
C470        C  0.46146683  0.91001430  0.97152179     0.04100
C471        C  0.45805647  0.91188106  0.98349345    -0.12000
C472        C  0.46513505  0.94720074  0.98951715     0.23400
C473        C  0.47423812  0.98158814  0.98339128    -0.12500
C474        C  0.47747971  0.97993644  0.97133759     0.04800
C475        C  0.46359655  0.94723348  0.00231064     0.27200
C476        C  0.43956375  0.95834679  0.00792165    -0.13200
C477        C  0.43752455  0.95587629  0.01997396     0.05300
C478        C  0.45993614  0.94367480  0.02661143    -0.09200
C479        C  0.48389546  0.93185497  0.02090916     0.06100
C480        C  0.48554223  0.93316162  0.00882602    -0.13600
Br481      Br  0.48228979  0.03079653  0.99157359    -0.05600
Br482      Br  0.45259320  0.86011266  0.96374406     0.00000
Br483      Br  0.40337353  0.96733908  0.02726511     0.00400
Br484      Br  0.51802382  0.91581064  0.00111174    -0.04000
Br485      Br  0.49224669  0.02562319  0.96313817     0.00500
Br486      Br  0.44357516  0.86591214  0.99176811    -0.03300
Br487      Br  0.40944566  0.97704626  0.99897694    -0.04100
Br488      Br  0.51526488  0.91605655  0.02948950    -0.00200
C489        C  0.66911431  0.09390174  0.05824845     0.01300
C490        C  0.66056145  0.08034716  0.04739167     0.04100
C491        C  0.63505577  0.06213183  0.04620585    -0.12000
C492        C  0.61851109  0.05644103  0.05592619     0.23400
C493        C  0.62803205  0.06699726  0.06688531    -0.12500
C494        C  0.65311948  0.08616448  0.06803172     0.04800
C495        C  0.59070263  0.04059115  0.05479095     0.27200
C496        C  0.56881791  0.06755279  0.05502754    -0.13200
C497        C  0.54227716  0.05283758  0.05615568     0.05300
C498        C  0.53730929  0.01032600  0.05667040    -0.09200
C499        C  0.55978712  0.98333278  0.05549160     0.06100
C500        C  0.58616714  0.99870666  0.05465615    -0.13600
Br501      Br  0.60612237  0.05641657  0.08029305    -0.05600
Br502      Br  0.68290335  0.08928152  0.03405557     0.00000
Br503      Br  0.51382268  0.09257711  0.05759996     0.00400
Br504      Br  0.61669210  0.96241437  0.05352622    -0.04000
Br505      Br  0.66527882  0.10271550  0.08302448     0.00500
Br506      Br  0.62210500  0.04684786  0.03125532    -0.03300
Br507      Br  0.57573596  0.12512455  0.05395758    -0.04100
Br508      Br  0.55625590  0.92477805  0.05500372    -0.00200
C509        C  0.88899661  0.42238096  0.06030117     0.01300
C510        C  0.87733414  0.40867519  0.04999602     0.04100
C511        C  0.85699620  0.37879286  0.05024540    -0.12000
C512        C  0.84649147  0.36513413  0.06082698     0.23400
C513        C  0.85602721  0.38234432  0.07109859    -0.12500
C514        C  0.87810300  0.40924435  0.07086558     0.04800
C515        C  0.82663478  0.33112784  0.06119770     0.27200
C516        C  0.79946620  0.33797409  0.05844834    -0.13200
C517        C  0.78101327  0.30546811  0.05833574     0.05300
C518        C  0.78921990  0.26590873  0.06166924    -0.09200
C519        C  0.81655465  0.25926650  0.06447980     0.06100
C520        C  0.83514863  0.29165217  0.06412160    -0.13600
Br521      Br  0.83909894  0.36816708  0.08547435    -0.05600
Br522      Br  0.89022983  0.42924294  0.03550840     0.00000
Br523      Br  0.74510440  0.31548102  0.05262345     0.00400
Br524      Br  0.87254413  0.28207292  0.06766671    -0.04000
Br525      Br  0.89429541  0.42625944  0.08503665     0.00500
Br526      Br  0.84489183  0.35440025  0.03613565    -0.03300
Br527      Br  0.78753049  0.39234260  0.05498252    -0.04100
Br528      Br  0.82883564  0.20631626  0.06919483    -0.00200
C529        C  0.91565639  0.35203731  0.93433974     0.01300
C530        C  0.89786262  0.37494534  0.94123788     0.04100
C531        C  0.87028043  0.36599965  0.94145832    -0.12000
C532        C  0.86019913  0.33443762  0.93464179     0.23400
C533        C  0.87791198  0.31069594  0.92794803    -0.12500
C534        C  0.90576447  0.31883091  0.92802634     0.04800
C535        C  0.83100845  0.32565304  0.93479777     0.27200
C536        C  0.82016341  0.30157737  0.94364081    -0.13200
C537        C  0.79282545  0.29105455  0.94347348     0.05300
C538        C  0.77622273  0.30454999  0.93446639    -0.09200
C539        C  0.78665973  0.33077256  0.92600735     0.06100
C540        C  0.81409565  0.34153385  0.92621966    -0.13600
Br541      Br  0.86375362  0.26855251  0.91821996    -0.05600
Br542      Br  0.91114259  0.41862227  0.95053571     0.00000
Br543      Br  0.77831344  0.25665839  0.95539933     0.00400
Br544      Br  0.82885353  0.37703187  0.91463790    -0.04000
Br545      Br  0.93005300  0.28558614  0.91914089     0.00500
Br546      Br  0.84600461  0.39776345  0.95082744    -0.03300
Br547      Br  0.84299053  0.28207155  0.95581512    -0.04100
Br548      Br  0.76398384  0.34931282  0.91369309    -0.00200
C549        C  0.54665058  0.00160100  0.92750957     0.01300
C550        C  0.56682283  0.00502102  0.93599253     0.04100
C551        C  0.58491308  0.03815903  0.93583503    -0.12000
C552        C  0.58215678  0.06930150  0.92759880     0.23400
C553        C  0.56187883  0.06622656  0.91924710    -0.12500
C554        C  0.54513530  0.03180855  0.91886785     0.04800
C555        C  0.60114122  0.10449747  0.92736667     0.27200
C556        C  0.59981331  0.13508849  0.93584473    -0.13200
C557        C  0.61892273  0.16684122  0.93591556     0.05300
C558        C  0.63853107  0.16939429  0.92714809    -0.09200
C559        C  0.63834969  0.14070026  0.91816972     0.06100
C560        C  0.62046733  0.10763330  0.91849734    -0.13600
Br561      Br  0.55632709  0.11021693  0.90853650    -0.05600
Br562      Br  0.56881778  0.96628658  0.94836395     0.00000
Br563      Br  0.61951623  0.20471530  0.94851862     0.00400
Br564      Br  0.62341647  0.06558317  0.90702964    -0.04000
Br565      Br  0.52098905  0.02584572  0.90604235     0.00500
Br566      Br  0.61325243  0.04136092  0.94708046    -0.03300
Br567      Br  0.57215740  0.13300694  0.94750925    -0.04100
Br568      Br  0.66249745  0.14710239  0.90524411    -0.00200
C569        C  0.71944110  0.21112340  0.02711395     0.01300
C570        C  0.69365809  0.21345607  0.02206231     0.04100
C571        C  0.69111690  0.21980943  0.01011169    -0.12000
C572        C  0.71424387  0.22268536  0.00305823     0.23400
C573        C  0.73992251  0.22142145  0.00814078    -0.12500
C574        C  0.74250374  0.21657584  0.02010362     0.04800
C575        C  0.71169047  0.22515695  0.99026921     0.27200
C576        C  0.70781368  0.18956513  0.98377811    -0.13200
C577        C  0.70550168  0.19144822  0.97170619     0.05300
C578        C  0.70757899  0.22906733  0.96591624    -0.09200
C579        C  0.71215672  0.26470361  0.97248322     0.06100
C580        C  0.71403491  0.26266660  0.98456112    -0.13600
Br581      Br  0.77169188  0.22465183  0.99859188    -0.05600
Br582      Br  0.66178512  0.20495662  0.03128054     0.00000
Br583      Br  0.69837488  0.14230773  0.96328046     0.00400
Br584      Br  0.72058699  0.31126428  0.99336122    -0.04000
Br585      Br  0.77788859  0.21858030  0.02690810     0.00500
Br586      Br  0.65592156  0.22345769  0.00326855    -0.03300
Br587      Br  0.70642131  0.13791777  0.99154216    -0.04100
Br588      Br  0.71777838  0.31653116  0.96506841    -0.00200
C589        C  0.17866662  0.56679299  0.05415648     0.01300
C590        C  0.16275510  0.55185697  0.06324576     0.04100
C591        C  0.13694128  0.53652686  0.06108773    -0.12000
C592        C  0.12599105  0.53939325  0.04999497     0.23400
C593        C  0.14243109  0.55184441  0.04074839    -0.12500
C594        C  0.16923754  0.56386564  0.04279933     0.04800
C595        C  0.09656451  0.53346888  0.04863896     0.27200
C596        C  0.08631883  0.49624787  0.04474522    -0.13200
C597        C  0.05864169  0.48790797  0.04581988     0.05300
C598        C  0.04141784  0.51561607  0.05158770    -0.09200
C599        C  0.05158517  0.55364015  0.05499238     0.06100
C600        C  0.07884841  0.56312391  0.05303436    -0.13600
Br601      Br  0.12750136  0.55638348  0.02557041    -0.05600
Br602      Br  0.17503546  0.55660535  0.07884512     0.00000
Br603      Br  0.04464387  0.43846831  0.03919977     0.00400
Br604      Br  0.09253084  0.61614074  0.05691279    -0.04000
Br605      Br  0.19232930  0.57951516  0.03021497     0.00500
Br606      Br  0.11553623  0.51481677  0.07353284    -0.03300
Br607      Br  0.11048140  0.45581942  0.03858796    -0.04100
Br608      Br  0.02938701  0.59088088  0.06358068    -0.00200
C609        C  0.28821860  0.74826931  0.06615737     0.01300
C610        C  0.30979424  0.74798809  0.07395772     0.04100
C611        C  0.32731948  0.78157853  0.07460670    -0.12000
C612        C  0.32351805  0.81533424  0.06736385     0.23400
C613        C  0.30106567  0.81664044  0.06005781    -0.12500
C614        C  0.28350359  0.78319346  0.05941023     0.04800
C615        C  0.34511197  0.84633154  0.06612913     0.27200
C616        C  0.34546795  0.88169793  0.07292659    -0.13200
C617        C  0.36650919  0.91029982  0.07162460     0.05300
C618        C  0.38799266  0.90230404  0.06397168    -0.09200
C619        C  0.38667644  0.86785039  0.05677508     0.06100
C620        C  0.36526947  0.84027076  0.05779475    -0.13600
Br621      Br  0.29505356  0.86405802  0.05069588    -0.05600
Br622      Br  0.31494678  0.70191486  0.08388208     0.00000
Br623      Br  0.36573126  0.95990776  0.08030745     0.00400
Br624      Br  0.36371304  0.79349587  0.04783839    -0.04000
Br625      Br  0.25398188  0.78457162  0.04870022     0.00500
Br626      Br  0.35670694  0.78154536  0.08534247    -0.03300
Br627      Br  0.31758915  0.88988874  0.08424318    -0.04100
Br628      Br  0.41396063  0.85857921  0.04518694    -0.00200
C629        C  0.28068945  0.77652689  0.93863709     0.01300
C630        C  0.28849763  0.80619661  0.93059932     0.04100
C631        C  0.31459801  0.82275632  0.93098348    -0.12000
C632        C  0.33281486  0.81001341  0.93949515     0.23400
C633        C  0.32440131  0.78260134  0.94802689    -0.12500
C634        C  0.29849112  0.76549768  0.94753498     0.04800
C635        C  0.36105937  0.82453609  0.93924697     0.27200
C636        C  0.38126238  0.80107337  0.93391806    -0.13200
C637        C  0.40764694  0.81636954  0.93284105     0.05300
C638        C  0.41385474  0.85536458  0.93700080    -0.09200
C639        C  0.39382223  0.87759364  0.94303353     0.06100
C640        C  0.36756884  0.86216434  0.94411952    -0.13600
Br641      Br  0.34892615  0.76754097  0.96010149    -0.05600
Br642      Br  0.26439263  0.82124509  0.91840876     0.00000
Br643      Br  0.43443741  0.78471466  0.92503610     0.00400
Br644      Br  0.34011181  0.89286542  0.95205375    -0.04000
Br645      Br  0.28787216  0.72572404  0.95883103     0.00500
Br646      Br  0.32596793  0.86126133  0.91948124    -0.03300
Br647      Br  0.37240115  0.74851097  0.92771843    -0.04100
Br648      Br  0.40192495  0.92944930  0.94997252    -0.00200
C649        C  0.06399119  0.45498361  0.92190890     0.01300
C650        C  0.08584599  0.45348416  0.92961399     0.04100
C651        C  0.10579733  0.48394393  0.92925047    -0.12000
C652        C  0.10396492  0.51581444  0.92121528     0.23400
C653        C  0.08390238  0.51469336  0.91274443    -0.12500
C654        C  0.06453983  0.48362411  0.91286489     0.04800
C655        C  0.12174733  0.55192890  0.92219327     0.27200
C656        C  0.11627603  0.58146789  0.93063272    -0.13200
C657        C  0.13367611  0.61485646  0.93203014     0.05300
C658        C  0.15595144  0.61991701  0.92458703    -0.09200
C659        C  0.15974983  0.59232658  0.91543823     0.06100
C660        C  0.14344489  0.55756309  0.91454689    -0.13600
Br661      Br  0.08154775  0.55764816  0.90153604    -0.05600
Br662      Br  0.08813307  0.41146286  0.94104327     0.00000
Br663      Br  0.12749971  0.65204264  0.94453530     0.00400
Br664      Br  0.15124713  0.51707123  0.90305310    -0.04000
Br665      Br  0.03879537  0.48030902  0.90050766     0.00500
Br666      Br  0.13473972  0.48376152  0.94024038    -0.03300
Br667      Br  0.08487452  0.57579927  0.94033602    -0.04100
Br668      Br  0.18610186  0.60352724  0.90361948    -0.00200
C669        C  0.21513642  0.68639293  0.96666339     0.01300
C670        C  0.21404876  0.64985090  0.97296832     0.04100
C671        C  0.21463970  0.65084070  0.98508597    -0.12000
C672        C  0.21551888  0.68825389  0.99094468     0.23400
C673        C  0.21592831  0.72464689  0.98470448    -0.12500
C674        C  0.21653531  0.72383838  0.97266691     0.04800
C675        C  0.21863096  0.68956657  0.00361844     0.27200
C676        C  0.19595331  0.69004187  0.01091936    -0.13200
C677        C  0.19928901  0.68951579  0.02293578     0.05300
C678        C  0.22549854  0.68917873  0.02769220    -0.09200
C679        C  0.24804187  0.69265000  0.02028250     0.06100
C680        C  0.24461685  0.69197360  0.00831897    -0.13600
Br681      Br  0.21607162  0.77583931  0.99277416    -0.05600
Br682      Br  0.21075433  0.59863937  0.96514195     0.00000
Br683      Br  0.16772917  0.68687981  0.03264994     0.00400
Br684      Br  0.27559069  0.69360896  0.99823675    -0.04000
Br685      Br  0.22144261  0.77474270  0.96464263     0.00500
Br686      Br  0.21455623  0.60109205  0.99378065    -0.03300
Br687      Br  0.16035979  0.69086519  0.00436485    -0.04100
Br688      Br  0.28376278  0.70003260  0.02643106    -0.00200
C689        C  0.46392671  0.47541467  0.52462768     0.01300
C690        C  0.48781824  0.46001331  0.51948869     0.04100
C691        C  0.48989133  0.45661205  0.50740774    -0.12000
C692        C  0.46842044  0.46876982  0.50032452     0.23400
C693        C  0.44439625  0.48269362  0.50538557    -0.12500
C694        C  0.44185534  0.48500010  0.51741919     0.04800
C695        C  0.47045584  0.46497038  0.48755783     0.27200
C696        C  0.48082349  0.49699378  0.48079839    -0.13200
C697        C  0.48286854  0.49291056  0.46873980     0.05300
C698        C  0.47417779  0.45695261  0.46335232    -0.09200
C699        C  0.46318401  0.42534401  0.47015315     0.06100
C700        C  0.46148680  0.42929440  0.48215941    -0.13600
Br701      Br  0.41503235  0.49942984  0.49568225    -0.05600
Br702      Br  0.51846301  0.44493643  0.52869006     0.00000
Br703      Br  0.49917407  0.53533943  0.45970177     0.00400
Br704      Br  0.44708904  0.38545898  0.49131129    -0.04000
Br705      Br  0.40719183  0.49905858  0.52388119     0.00500
Br706      Br  0.52239927  0.43599739  0.50038962    -0.03300
Br707      Br  0.49247612  0.54620639  0.48816365    -0.04100
Br708      Br  0.44989389  0.37629079  0.46310393    -0.00200
C709        C  0.30003815  0.27415043  0.56456212     0.01300
C710        C  0.32438392  0.27252288  0.57070853     0.04100
C711        C  0.34162023  0.30653483  0.57095444    -0.12000
C712        C  0.33504283  0.34197291  0.56477769     0.23400
C713        C  0.31070644  0.34365093  0.55864050    -0.12500
C714        C  0.29303616  0.31017888  0.55869115     0.04800
C715        C  0.35498309  0.37565435  0.56380237     0.27200
C716        C  0.35310056  0.41059139  0.57076928    -0.13200
C717        C  0.37319031  0.44098355  0.57014812     0.05300
C718        C  0.39505389  0.43660509  0.56248184    -0.09200
C719        C  0.39600935  0.40260627  0.55511941     0.06100
C720        C  0.37620608  0.37224512  0.55582745    -0.13600
Br721      Br  0.30220443  0.39134275  0.54976500    -0.05600
Br722      Br  0.33377402  0.22407855  0.57904831     0.00000
Br723      Br  0.37143278  0.48751127  0.58011278     0.00400
Br724      Br  0.37817974  0.32551968  0.54587247    -0.04000
Br725      Br  0.25975711  0.31334361  0.55021859     0.00500
Br726      Br  0.37453279  0.30462766  0.57964858    -0.03300
Br727      Br  0.32316455  0.41632266  0.58122169    -0.04100
Br728      Br  0.42414790  0.39783394  0.54373261    -0.00200
C729        C  0.27241010  0.32063887  0.43978577     0.01300
C730        C  0.28864651  0.30912244  0.44911798     0.04100
C731        C  0.31588599  0.32010074  0.44930277    -0.12000
C732        C  0.32712818  0.34057666  0.43985768     0.23400
C733        C  0.31063291  0.35393280  0.43081109    -0.12500
C734        C  0.28307328  0.34462101  0.43090228     0.04800
C735        C  0.35616064  0.34942151  0.43956253     0.27200
C736        C  0.36516122  0.38686633  0.44368209    -0.13200
C737        C  0.39219527  0.39777633  0.44232338     0.05300
C738        C  0.41038140  0.37143113  0.43657882    -0.09200
C739        C  0.40171692  0.33234607  0.43333448     0.06100
C740        C  0.37444387  0.32151765  0.43472716    -0.13600
Br741      Br  0.32612346  0.38323951  0.41806815    -0.05600
Br742      Br  0.27415135  0.27516890  0.46113724     0.00000
Br743      Br  0.40379131  0.44930068  0.44848658     0.00400
Br744      Br  0.36157843  0.26954410  0.42944398    -0.04000
Br745      Br  0.26035376  0.36157195  0.41841815     0.00500
Br746      Br  0.33800448  0.30619050  0.46228023    -0.03300
Br747      Br  0.33980030  0.42405508  0.45062997    -0.04100
Br748      Br  0.42638831  0.29433825  0.42652054    -0.00200
C749        C  0.22885129  0.21059580  0.52920655     0.01300
C750        C  0.25012168  0.21577849  0.52121334     0.04100
C751        C  0.24478545  0.21702312  0.50937256    -0.12000
C752        C  0.21820214  0.21314982  0.50535858     0.23400
C753        C  0.19689228  0.20842487  0.51327502    -0.12500
C754        C  0.20210466  0.20757004  0.52516801     0.04800
C755        C  0.21268278  0.21767837  0.49286767     0.27200
C756        C  0.21042665  0.25681460  0.48818522    -0.13200
C757        C  0.20757595  0.26214636  0.47627530     0.05300
C758        C  0.20684605  0.22802636  0.46885323    -0.09200
C759        C  0.20796677  0.18864431  0.47366143     0.06100
C760        C  0.21101793  0.18356188  0.48561861    -0.13600
Br761      Br  0.16061194  0.20216357  0.50771947    -0.05600
Br762      Br  0.28678476  0.22229149  0.52642602     0.00000
Br763      Br  0.20639006  0.31693491  0.47036978     0.00400
Br764      Br  0.21315990  0.12989157  0.49212613    -0.04000
Br765      Br  0.17254230  0.20020571  0.53577659     0.00500
Br766      Br  0.27397802  0.22383208  0.49853801    -0.03300
Br767      Br  0.21200697  0.30334819  0.49823695    -0.04100
Br768      Br  0.20403226  0.14143119  0.46401989    -0.00200
C769        C  0.06292639  0.98458752  0.55727391     0.01300
C770        C  0.08804840  0.96359666  0.55642530     0.04100
C771        C  0.11251541  0.98510866  0.55656613    -0.12000
C772        C  0.11252938  0.02755285  0.55703903     0.23400
C773        C  0.08801477  0.04886341  0.55719017    -0.12500
C774        C  0.06328695  0.02772668  0.55748792     0.04800
C775        C  0.13852634  0.04955078  0.55790379     0.27200
C776        C  0.14859160  0.06002528  0.56878127    -0.13200
C777        C  0.17316963  0.08084401  0.56968830     0.05300
C778        C  0.18763134  0.09177412  0.55972189    -0.09200
C779        C  0.17809169  0.08003070  0.54885827     0.06100
C780        C  0.15357306  0.05880242  0.54795564    -0.13600
Br781      Br  0.08867067  0.10742703  0.55717849    -0.05600
Br782      Br  0.09050478  0.90526283  0.55471209     0.00000
Br783      Br  0.18701998  0.09474786  0.58463062     0.00400
Br784      Br  0.14006328  0.04340968  0.53310672    -0.04000
Br785      Br  0.03060615  0.05919109  0.55879613     0.00500
Br786      Br  0.14657656  0.95656228  0.55635434    -0.03300
Br787      Br  0.12826529  0.04681360  0.58243027    -0.04100
Br788      Br  0.19768874  0.09526326  0.53520042    -0.00200
C789        C  0.05491053  0.00230462  0.42852497     0.01300
C790        C  0.07425378  0.00590867  0.43728375     0.04100
C791        C  0.09165310  0.03966217  0.43747391    -0.12000
C792        C  0.08916411  0.07035604  0.42911939     0.23400
C793        C  0.06986652  0.06674468  0.42039036    -0.12500
C794        C  0.05320108  0.03242447  0.41994664     0.04800
C795        C  0.10779324  0.10541596  0.42908127     0.27200
C796        C  0.10362309  0.13835101  0.43657736    -0.13200
C797        C  0.12218633  0.17060574  0.43682651     0.05300
C798        C  0.14443477  0.17067426  0.42922136    -0.09200
C799        C  0.14772046  0.13843976  0.42131487     0.06100
C800        C  0.12971410  0.10566417  0.42140969    -0.13600
Br801      Br  0.06594284  0.10946316  0.40918303    -0.05600
Br802      Br  0.07567670  0.96638301  0.44946242     0.00000
Br803      Br  0.11823912  0.21225910  0.44837229     0.00400
Br804      Br  0.13541208  0.06028181  0.41119995    -0.04000
Br805      Br  0.02816088  0.02651367  0.40742700     0.00500
Br806      Br  0.11862994  0.04443242  0.44926488    -0.03300
Br807      Br  0.07272847  0.13875867  0.44666752    -0.04100
Br808      Br  0.17683753  0.13854142  0.41021585    -0.00200
C809        C  0.99169466  0.91469385  0.46569874     0.01300
C810        C  0.99332043  0.94785928  0.47329831     0.04100
C811        C  0.99419411  0.94102436  0.48524462    -0.12000
C812        C  0.99384816  0.90107344  0.48963137     0.23400
C813        C  0.99118395  0.86812090  0.48207822    -0.12500
C814        C  0.98949781  0.87486213  0.47020520     0.04800
C815        C  0.99549597  0.89356672  0.50220137     0.27200
C816        C  0.02062483  0.89380602  0.50780146    -0.13200
C817        C  0.02188086  0.88930270  0.51983027     0.05300
C818        C  0.99798428  0.88494056  0.52629370    -0.09200
C819        C  0.97317317  0.88097346  0.52052175     0.06100
C820        C  0.97190169  0.88540076  0.50853967    -0.13600
Br821      Br  0.98981203  0.81351094  0.48807553    -0.05600
Br822      Br  0.99521689  0.00250115  0.46741593     0.00000
Br823      Br  0.05612594  0.89120709  0.52743650     0.00400
Br824      Br  0.93767861  0.88156527  0.50081719    -0.04000
Br825      Br  0.98231151  0.82911221  0.46029126     0.00500
Br826      Br  0.99575894  0.98639016  0.49564036    -0.03300
Br827      Br  0.05316387  0.90154941  0.49895929    -0.04100
Br828      Br  0.94066388  0.87022683  0.52914622    -0.00200
C829        C  0.79025658  0.78349050  0.43239615     0.01300
C830        C  0.80988802  0.76228755  0.43872872     0.04100
C831        C  0.83686525  0.77437454  0.43835286    -0.12000
C832        C  0.84426265  0.80890671  0.43207411     0.23400
C833        C  0.82460094  0.83169181  0.42622055    -0.12500
C834        C  0.79754573  0.81874287  0.42627907     0.04800
C835        C  0.87252595  0.82249421  0.43244221     0.27200
C836        C  0.88071208  0.84815905  0.44138302    -0.13200
C837        C  0.90748312  0.86128543  0.44189092     0.05300
C838        C  0.92619825  0.84862209  0.43346142    -0.09200
C839        C  0.91853044  0.82026944  0.42507207     0.06100
C840        C  0.89153982  0.80744870  0.42450175    -0.13600
Br841      Br  0.83496367  0.88007224  0.41801582    -0.05600
Br842      Br  0.79986339  0.71731335  0.44833264     0.00000
Br843      Br  0.91831602  0.89751919  0.45406438     0.00400
Br844      Br  0.88034661  0.77006938  0.41274794    -0.04000
Br845      Br  0.77095776  0.84804057  0.41756870     0.00500
Br846      Br  0.86398717  0.74341717  0.44634458    -0.03300
Br847      Br  0.85500615  0.86565502  0.45284664    -0.04100
Br848      Br  0.94451461  0.80085056  0.41403418    -0.00200
C849        C  0.64799580  0.65824926  0.42474817     0.01300
C850        C  0.64883008  0.62626033  0.41661977     0.04100
C851        C  0.63005923  0.59445963  0.41716399    -0.12000
C852        C  0.60844585  0.59620137  0.42497544     0.23400
C853        C  0.60575083  0.63008374  0.43227608    -0.12500
C854        C  0.62570245  0.66066949  0.43235192     0.04800
C855        C  0.58806539  0.56304647  0.42510013     0.27200
C856        C  0.56950968  0.55982270  0.41605496    -0.13200
C857        C  0.55064372  0.52801356  0.41592878     0.05300
C858        C  0.54924037  0.50003646  0.42512986    -0.09200
C859        C  0.56815287  0.50301413  0.43412719     0.06100
C860        C  0.58778425  0.53399410  0.43398346    -0.13600
Br861      Br  0.57480022  0.63404238  0.44230705    -0.05600
Br862      Br  0.67464403  0.62656167  0.40413026     0.00000
Br863      Br  0.52729579  0.52253482  0.40284049     0.00400
Br864      Br  0.61428187  0.53700037  0.44601329    -0.04000
Br865      Br  0.62226244  0.70459287  0.44315376     0.00500
Br866      Br  0.63450646  0.54753717  0.40741127    -0.03300
Br867      Br  0.56971146  0.59962492  0.40386577    -0.04100
Br868      Br  0.56624545  0.46685311  0.44712513    -0.00200
C869        C  0.67083200  0.59888749  0.55070358     0.01300
C870        C  0.65905586  0.56166204  0.55392101     0.04100
C871        C  0.63126375  0.55562504  0.55239208    -0.12000
C872        C  0.61540038  0.58647528  0.54749019     0.23400
C873        C  0.62747210  0.62194903  0.54329105    -0.12500
C874        C  0.65511484  0.62826716  0.54487733     0.04800
C875        C  0.58586196  0.58474553  0.54864417     0.27200
C876        C  0.56948579  0.57279457  0.53941986    -0.13200
C877        C  0.54155606  0.56911366  0.54108410     0.05300
C878        C  0.53060679  0.57322344  0.55217537    -0.09200
C879        C  0.54690582  0.58647119  0.56126927     0.06100
C880        C  0.57423511  0.59439668  0.55932753    -0.13600
Br881      Br  0.60551370  0.66328851  0.53622457    -0.05600
Br882      Br  0.68006003  0.52035470  0.56134236     0.00000
Br883      Br  0.51835036  0.55639393  0.52838261     0.00400
Br884      Br  0.59615564  0.61667264  0.57143955    -0.04000
Br885      Br  0.67085874  0.67797222  0.53913608     0.00500
Br886      Br  0.61427578  0.50663322  0.55791811    -0.03300
Br887      Br  0.58543687  0.55860744  0.52486496    -0.04100
Br888      Br  0.53263509  0.58989145  0.57661448    -0.00200
C889        C  0.82269186  0.68895918  0.55917496     0.01300
C890        C  0.83369668  0.70401681  0.54886681     0.04100
C891        C  0.85400493  0.73383031  0.54916037    -0.12000
C892        C  0.86446043  0.74689112  0.55977499     0.23400
C893        C  0.85527591  0.72863375  0.57001320    -0.12500
C894        C  0.83405077  0.70034247  0.56972051     0.04800
C895        C  0.88609787  0.77816533  0.56014761     0.27200
C896        C  0.91284006  0.76683374  0.55792152    -0.13200
C897        C  0.93359510  0.79592620  0.55826337     0.05300
C898        C  0.92789691  0.83704368  0.56121379    -0.09200
C899        C  0.90080698  0.84809843  0.56348771     0.06100
C900        C  0.88006624  0.81881473  0.56285661    -0.13600
Br901      Br  0.87192377  0.74224652  0.58440237    -0.05600
Br902      Br  0.82074638  0.68391952  0.53437609     0.00000
Br903      Br  0.96940672  0.77806612  0.55401402     0.00400
Br904      Br  0.84314994  0.83412495  0.56576341    -0.04000
Br905      Br  0.82062940  0.67634775  0.58369762     0.00500
Br906      Br  0.86704150  0.75749540  0.53505319    -0.03300
Br907      Br  0.92082728  0.71069771  0.55445966    -0.04100
Br908      Br  0.89165527  0.90260938  0.56803895    -0.00200
C909        C  0.73868079  0.67032029  0.52337855     0.01300
C910        C  0.72458855  0.64117078  0.51677584     0.04100
C911        C  0.72088016  0.64703294  0.50495910    -0.12000
C912        C  0.73242705  0.68078705  0.49945872     0.23400
C913        C  0.74565816  0.71066294  0.50601493    -0.12500
C914        C  0.74817329  0.70597811  0.51801007     0.04800
C915        C  0.72949971  0.68515187  0.48682307     0.27200
C916        C  0.74661854  0.66377342  0.47928826    -0.13200
C917        C  0.74263669  0.66572319  0.46729858     0.05300
C918        C  0.72186141  0.69049448  0.46273279    -0.09200
C919        C  0.70324892  0.70849563  0.47052463     0.06100
C920        C  0.70764100  0.70696598  0.48241534    -0.13600
Br921      Br  0.76030343  0.75784710  0.49847301    -0.05600
Br922      Br  0.70940843  0.59319177  0.52380150     0.00000
Br923      Br  0.76483797  0.63195328  0.45759583     0.00400
Br924      Br  0.68351855  0.73475922  0.49281885    -0.04000
Br925      Br  0.76496856  0.74804186  0.52693797     0.00500
Br926      Br  0.69922622  0.60935576  0.49625543    -0.03300
Br927      Br  0.77574432  0.63203799  0.48555219    -0.04100
Br928      Br  0.66969833  0.73156137  0.46532696    -0.00200
C929        C  0.99576524  0.24411446  0.84264838     0.01300
C930        C  0.99920989  0.28706832  0.84286250     0.04100
C931        C  0.99654787  0.30875660  0.85321364    -0.12000
C932        C  0.99033115  0.28840573  0.86346867     0.23400
C933        C  0.98659491  0.24604829  0.86336461    -0.12500
C934        C  0.98927281  0.22391928  0.85303787     0.04800
C935        C  0.98986943  0.31142173  0.87447489     0.27200
C936        C  0.01426787  0.31929754  0.88017450    -0.13200
C937        C  0.01432200  0.34145830  0.89047786     0.05300
C938        C  0.98987955  0.35506228  0.89535524    -0.09200
C939        C  0.96546826  0.34808189  0.88952326     0.06100
C940        C  0.96552059  0.32671452  0.87902685    -0.13600
Br941      Br  0.97847020  0.21840381  0.87755175    -0.05600
Br942      Br  0.00614965  0.31816750  0.82905772     0.00000
Br943      Br  0.04813809  0.35425796  0.89775478     0.00400
Br944      Br  0.93231268  0.31821499  0.87087217    -0.04000
Br945      Br  0.98538937  0.16570196  0.85347784     0.00500
Br946      Br  0.00171354  0.36690345  0.85350440    -0.03300
Br947      Br  0.04768995  0.29931675  0.87383641    -0.04100
Br948      Br  0.93184046  0.36570503  0.89620843    -0.00200
C949        C  0.97688953  0.06584835  0.64774781     0.01300
C950        C  0.98697780  0.08589560  0.63781642     0.04100
C951        C  0.98981946  0.06472794  0.62730251    -0.12000
C952        C  0.98254322  0.02350072  0.62644326     0.23400
C953        C  0.97271513  0.00324926  0.63618721    -0.12500
C954        C  0.96962524  0.02389107  0.64671229     0.04800
C955        C  0.98400388  0.00151459  0.61520140     0.27200
C956        C  0.96042948  0.99555541  0.60871797    -0.13200
C957        C  0.96142137  0.97394282  0.59827812     0.05300
C958        C  0.98623498  0.95920028  0.59393566    -0.09200
C959        C  0.00984323  0.96512713  0.60048844     0.06100
C960        C  0.00850879  0.98491907  0.61123424    -0.13600
Br961      Br  0.96366541  0.94626669  0.63498244    -0.05600
Br962      Br  0.99589848  0.14291952  0.63809928     0.00000
Br963      Br  0.92831922  0.96348965  0.59019809     0.00400
Br964      Br  0.04010194  0.98839498  0.62073506    -0.04000
Br965      Br  0.95570274  0.99200512  0.65942395     0.00500
Br966      Br  0.00361508  0.09223648  0.61390056    -0.03300
Br967      Br  0.92654630  0.01668459  0.61429794    -0.04100
Br968      Br  0.04452906  0.94955202  0.59439992    -0.00200
C969        C  0.99023040  0.15875062  0.77617887     0.01300
C970        C  0.01309582  0.16353528  0.76895444     0.04100
C971        C  0.01045043  0.16159657  0.75695378    -0.12000
C972        C  0.98507466  0.15493339  0.75199907     0.23400
C973        C  0.96234227  0.14938031  0.75909872    -0.12500
C974        C  0.96496758  0.14998497  0.77114660     0.04800
C975        C  0.98279859  0.15063275  0.73933246     0.27200
C976        C  0.97612923  0.18411931  0.73237703    -0.13200
C977        C  0.97465513  0.17973794  0.72034105     0.05300
C978        C  0.97958861  0.14164705  0.71522590    -0.09200
C979        C  0.98592817  0.10798920  0.72230875     0.06100
C980        C  0.98785468  0.11271164  0.73425793    -0.13600
Br981      Br  0.92736095  0.14286180  0.75220029    -0.05600
Br982      Br  0.04862605  0.17105718  0.77534880     0.00000
Br983      Br  0.96403577  0.22518033  0.71100178     0.00400
Br984      Br  0.99763893  0.06710502  0.74379480    -0.04000
Br985      Br  0.93352457  0.13961848  0.78051276     0.00500
Br986      Br  0.04155997  0.16883306  0.74715223    -0.03300
Br987      Br  0.96864530  0.23572934  0.73945943    -0.04100
Br988      Br  0.99240431  0.05480227  0.71584277    -0.00200
C989        C  0.72853983  0.36639188  0.84067882     0.01300
C990        C  0.73606827  0.38653152  0.85097956     0.04100
C991        C  0.73414903  0.36648114  0.86171311    -0.12000
C992        C  0.72483617  0.32618285  0.86242654     0.23400
C993        C  0.71817026  0.30549390  0.85230272    -0.12500
C994        C  0.71961664  0.32519733  0.84154974     0.04800
C995        C  0.72049191  0.30607118  0.87384537     0.27200
C996        C  0.74182688  0.28644696  0.87954652    -0.13200
C997        C  0.73759676  0.26813622  0.89039060     0.05300
C998        C  0.71173827  0.26873682  0.89560193    -0.09200
C999        C  0.69006917  0.28613692  0.88947448     0.06100
C1000       C  0.69455036  0.30539171  0.87881151    -0.13600
Br1001     Br  0.70701673  0.24936714  0.85332339    -0.05600
Br1002     Br  0.74771858  0.44241516  0.85088030     0.00000
Br1003     Br  0.76786096  0.24420707  0.89821803     0.00400
Br1004     Br  0.66516973  0.33184037  0.87102548    -0.04000
Br1005     Br  0.70913292  0.29360134  0.82829875     0.00500
Br1006     Br  0.74396087  0.39428590  0.87564739    -0.03300
Br1007     Br  0.77703815  0.28536348  0.87250654    -0.04100
Br1008     Br  0.65376089  0.28175316  0.89533551    -0.00200
C1009       C  0.93168697  0.26873831  0.80474753     0.01300
C1010       C  0.91868695  0.26655882  0.79406670     0.04100
C1011       C  0.89173018  0.27895861  0.79303101    -0.12000
C1012       C  0.87862963  0.29771316  0.80236607     0.23400
C1013       C  0.89267019  0.30397802  0.81269830    -0.12500
C1014       C  0.91866852  0.28782421  0.81405144     0.04800
C1015       C  0.85049640  0.31221500  0.80122182     0.27200
C1016       C  0.84520513  0.34731961  0.79478006    -0.13200
C1017       C  0.81893661  0.36270819  0.79429674     0.05300
C1018       C  0.79816191  0.34531791  0.80096328    -0.09200
C1019       C  0.80308358  0.30889313  0.80690039     0.06100
C1020       C  0.82915131  0.29194138  0.80686035    -0.13600
Br1021     Br  0.87613562  0.33430315  0.82502071    -0.05600
Br1022     Br  0.93797607  0.24688469  0.78085548     0.00000
Br1023     Br  0.81135765  0.40746640  0.78430606     0.00400
Br1024     Br  0.83598919  0.24205139  0.81497336    -0.04000
Br1025     Br  0.93575791  0.29016155  0.82880512     0.00500
Br1026     Br  0.87230387  0.26834633  0.77905024    -0.03300
Br1027     Br  0.87428378  0.37618573  0.78730265    -0.04100
Br1028     Br  0.77483329  0.28374973  0.81570763    -0.00200
C1029       C  0.74771398  0.58738463  0.59021928     0.01300
C1030       C  0.74543641  0.54435133  0.59109468     0.04100
C1031       C  0.74575106  0.52496580  0.60186808    -0.12000
C1032       C  0.74809663  0.54764369  0.61199414     0.23400
C1033       C  0.74915647  0.59031306  0.61134253    -0.12500
C1034       C  0.74916890  0.61020314  0.60055355     0.04800
C1035       C  0.75099677  0.52585290  0.62318843     0.27200
C1036       C  0.72822082  0.51637442  0.62995911    -0.13200
C1037       C  0.73110256  0.49415085  0.64025364     0.05300
C1038       C  0.75680570  0.48060705  0.64376666    -0.09200
C1039       C  0.77931644  0.48841106  0.63666134     0.06100
C1040       C  0.77651372  0.51150282  0.62655734    -0.13600
Br1041     Br  0.75080627  0.62129146  0.62536192    -0.05600
Br1042     Br  0.74103184  0.51012774  0.57777176     0.00000
Br1043     Br  0.69993684  0.48458388  0.64983337     0.00400
Br1044     Br  0.80779831  0.52434235  0.61737851    -0.04000
Br1045     Br  0.75272384  0.66850760  0.60025353     0.00500
Br1046     Br  0.74306959  0.46655054  0.60290274    -0.03300
Br1047     Br  0.69313535  0.53461568  0.62518631    -0.04100
Br1048     Br  0.81401505  0.46631233  0.64064705    -0.00200
C1049       C  0.82401657  0.36588080  0.67407748     0.01300
C1050       C  0.81806246  0.33127753  0.66729129     0.04100
C1051       C  0.83466818  0.29675176  0.66771702    -0.12000
C1052       C  0.85830218  0.29715704  0.67429909     0.23400
C1053       C  0.86550185  0.33253044  0.68034480    -0.12500
C1054       C  0.84817099  0.36645968  0.68048089     0.04800
C1055       C  0.87587903  0.26059291  0.67463974     0.27200
C1056       C  0.87398910  0.23290243  0.68382771    -0.13200
C1057       C  0.89157419  0.19933646  0.68440278     0.05300
C1058       C  0.91105410  0.19311265  0.67569421    -0.09200
C1059       C  0.91180033  0.21984774  0.66617983     0.06100
C1060       C  0.89443624  0.25351671  0.66571737    -0.13600
Br1061     Br  0.89920243  0.33410654  0.68850283    -0.05600
Br1062     Br  0.78776247  0.33100195  0.65691745     0.00000
Br1063     Br  0.89007041  0.16403296  0.69759257     0.00400
Br1064     Br  0.89641289  0.29084625  0.65297308    -0.04000
Br1065     Br  0.85706822  0.41210796  0.69010448     0.00500
Br1066     Br  0.82487774  0.24824790  0.65942893    -0.03300
Br1067     Br  0.84762508  0.24182248  0.69576835    -0.04100
Br1068     Br  0.93647191  0.21049422  0.65359305    -0.00200
C1069       C  0.76431101  0.44835746  0.71346645     0.01300
C1070       C  0.75618830  0.48511908  0.71870258     0.04100
C1071       C  0.75368014  0.48782099  0.73070432    -0.12000
C1072       C  0.75898801  0.45381330  0.73762656     0.23400
C1073       C  0.76754660  0.41724543  0.73245285    -0.12500
C1074       C  0.77057929  0.41471165  0.72041209     0.04800
C1075       C  0.75303328  0.45571692  0.75018051     0.27200
C1076       C  0.77155007  0.47281689  0.75793203    -0.13200
C1077       C  0.76528305  0.47519326  0.76977057     0.05300
C1078       C  0.74107613  0.45770077  0.77405894    -0.09200
C1079       C  0.72142858  0.44495625  0.76598752     0.06100
C1080       C  0.72755977  0.44354316  0.75418945    -0.13600
Br1081     Br  0.77436917  0.37039916  0.74188364    -0.05600
Br1082     Br  0.74712624  0.53177785  0.70948935     0.00000
Br1083     Br  0.78938535  0.50494757  0.77964117     0.00400
Br1084     Br  0.70094705  0.42495268  0.74333867    -0.04000
Br1085     Br  0.78456547  0.36601973  0.71344949     0.00500
Br1086     Br  0.74187019  0.53783313  0.73771861    -0.03300
Br1087     Br  0.80569510  0.49252254  0.75224099    -0.04100
Br1088     Br  0.68498865  0.43262809  0.77071767    -0.00200
C1089       C  0.49499084  0.66536162  0.64469583     0.01300
C1090       C  0.46840246  0.65798230  0.64092003     0.04100
C1091       C  0.46362120  0.63816044  0.63040337    -0.12000
C1092       C  0.48527742  0.62673326  0.62326195     0.23400
C1093       C  0.51176811  0.63715082  0.62652057    -0.12500
C1094       C  0.51665975  0.65641085  0.63717814     0.04800
C1095       C  0.47994130  0.60445022  0.61226655     0.27200
C1096       C  0.47758313  0.56182198  0.61216997    -0.13200
C1097       C  0.47179858  0.54079739  0.60186998     0.05300
C1098       C  0.46791617  0.56228913  0.59146567    -0.09200
C1099       C  0.47016024  0.60542028  0.59168729     0.06100
C1100       C  0.47616847  0.62605055  0.60199567    -0.13600
Br1101     Br  0.54135757  0.62424455  0.61639836    -0.05600
Br1102     Br  0.43824063  0.67746647  0.64982814     0.00000
Br1103     Br  0.46820068  0.48256909  0.60233066     0.00400
Br1104     Br  0.47941930  0.68445022  0.60214613    -0.04000
Br1105     Br  0.55313709  0.66940274  0.64146527     0.00500
Br1106     Br  0.42724544  0.62594795  0.62580994    -0.03300
Br1107     Br  0.48199614  0.53240696  0.62634150    -0.04100
Br1108     Br  0.46682188  0.63755184  0.57786645    -0.00200
C1109       C  0.57218484  0.62302017  0.68128569     0.01300
C1110       C  0.57905960  0.59487128  0.67271067     0.04100
C1111       C  0.60465487  0.57667635  0.67278138    -0.12000
C1112       C  0.62307128  0.58628128  0.68154808     0.23400
C1113       C  0.61544745  0.61249234  0.69051380    -0.12500
C1114       C  0.58994764  0.63062076  0.69040689     0.04800
C1115       C  0.64993671  0.56717024  0.68177888     0.27200
C1116       C  0.65432220  0.53402970  0.68910220    -0.13200
C1117       C  0.67990040  0.51636301  0.68969967     0.05300
C1118       C  0.70088345  0.53016604  0.68243460    -0.09200
C1119       C  0.69664080  0.56396293  0.67524932     0.06100
C1120       C  0.67118097  0.58270755  0.67501997    -0.13600
Br1121     Br  0.64003226  0.62365021  0.70291461    -0.05600
Br1122     Br  0.55349253  0.58168726  0.66088916     0.00000
Br1123     Br  0.68596916  0.47308437  0.70059017     0.00400
Br1124     Br  0.66493567  0.62859751  0.66511873    -0.04000
Br1125     Br  0.57886111  0.66463840  0.70299977     0.00500
Br1126     Br  0.61462690  0.53900352  0.66085679    -0.03300
Br1127     Br  0.62479153  0.51167172  0.69792717    -0.04100
Br1128     Br  0.72480396  0.58281565  0.66510549    -0.00200
C1129       C  0.50353280  0.77116283  0.84401264     0.01300
C1130       C  0.47716714  0.77608805  0.84841119     0.04100
C1131       C  0.47295949  0.79714020  0.85881211    -0.12000
C1132       C  0.49501302  0.81303481  0.86492312     0.23400
C1133       C  0.52135177  0.80688832  0.86075810    -0.12500
C1134       C  0.52561194  0.78648061  0.85030998     0.04800
C1135       C  0.49090517  0.83410586  0.87610658     0.27200
C1136       C  0.48846387  0.87662075  0.87667276    -0.13200
C1137       C  0.48647454  0.89648513  0.88740923     0.05300
C1138       C  0.48796486  0.87396028  0.89776183    -0.09200
C1139       C  0.49079193  0.83090781  0.89698848     0.06100
C1140       C  0.49143890  0.81138235  0.88625608    -0.13600
Br1141     Br  0.55165419  0.82682759  0.86941788    -0.05600
Br1142     Br  0.44656741  0.75696899  0.83981686     0.00000
Br1143     Br  0.48357811  0.95472611  0.88763770     0.00400
Br1144     Br  0.49350246  0.75283709  0.88529165    -0.04000
Br1145     Br  0.56197073  0.78005794  0.84459571     0.00500
Br1146     Br  0.43696763  0.80517350  0.86464547    -0.03300
Br1147     Br  0.48872389  0.90745849  0.86260491    -0.04100
Br1148     Br  0.49439694  0.79665032  0.91034535    -0.00200
C1149       C  0.58192247  0.67106857  0.81725022     0.01300
C1150       C  0.60503489  0.67158049  0.81015854     0.04100
C1151       C  0.62341776  0.63895230  0.81049001    -0.12000
C1152       C  0.61930357  0.60634773  0.81814620     0.23400
C1153       C  0.59775639  0.60783578  0.82601088    -0.12500
C1154       C  0.57920862  0.64009922  0.82560988     0.04800
C1155       C  0.63684272  0.56968245  0.81751168     0.27200
C1156       C  0.63113376  0.53885629  0.80952754    -0.13200
C1157       C  0.64902499  0.50596970  0.80803191     0.05300
C1158       C  0.67240472  0.50270075  0.81493294    -0.09200
C1159       C  0.67645897  0.53195561  0.82373225     0.06100
C1160       C  0.65918114  0.56569389  0.82477638    -0.13600
Br1161     Br  0.59294716  0.56441004  0.83693890    -0.05600
Br1162     Br  0.61094026  0.71551944  0.79952650     0.00000
Br1163     Br  0.64157701  0.46741859  0.79601750     0.00400
Br1164     Br  0.66610758  0.60697836  0.83613360    -0.04000
Br1165     Br  0.55003172  0.64174764  0.83663206     0.00500
Br1166     Br  0.65347174  0.63749360  0.79997146    -0.03300
Br1167     Br  0.59851457  0.54218691  0.80061638    -0.04100
Br1168     Br  0.70481627  0.52567382  0.83490919    -0.00200
C1169       C  0.52008003  0.72771814  0.77490157     0.01300
C1170       C  0.51237584  0.76311434  0.76883670     0.04100
C1171       C  0.51311357  0.76394741  0.75677393    -0.12000
C1172       C  0.52142139  0.72951143  0.75059189     0.23400
C1173       C  0.52951591  0.69435961  0.75658321    -0.12500
C1174       C  0.52896652  0.69349074  0.76870592     0.04800
C1175       C  0.51881902  0.72893309  0.73784592     0.27200
C1176       C  0.49521205  0.71323614  0.73295769    -0.13200
C1177       C  0.49238440  0.71145115  0.72096549     0.05300
C1178       C  0.51357095  0.72471805  0.71360651    -0.09200
C1179       C  0.53611384  0.74438266  0.71860147     0.06100
C1180       C  0.53883577  0.74581538  0.73067453    -0.13600
Br1181     Br  0.54108971  0.64733138  0.74807789    -0.05600
Br1182     Br  0.49950257  0.81052486  0.77692025     0.00000
Br1183     Br  0.45811021  0.69363671  0.71491906     0.00400
Br1184     Br  0.56998305  0.77098084  0.73749815    -0.04000
Br1185     Br  0.54162002  0.64627258  0.77679656     0.00500
Br1186     Br  0.50193294  0.81204550  0.74862257    -0.03300
Br1187     Br  0.46639783  0.69473558  0.74287857    -0.04100
Br1188     Br  0.56327533  0.77035659  0.70923955    -0.00200
C1189       C  0.26489488  0.01076644  0.64631360     0.01300
C1190       C  0.24070368  0.01129674  0.63997543     0.04100
C1191       C  0.23906325  0.03390163  0.62971441    -0.12000
C1192       C  0.26202294  0.05392961  0.62532179     0.23400
C1193       C  0.28670058  0.05057432  0.63115280    -0.12500
C1194       C  0.28786717  0.03076942  0.64184565     0.04800
C1195       C  0.26030217  0.07877393  0.61463478     0.27200
C1196       C  0.26031626  0.05963914  0.60386245    -0.13200
C1197       C  0.25917432  0.08288376  0.59374217     0.05300
C1198       C  0.25797211  0.12593164  0.59426651    -0.09200
C1199       C  0.25821710  0.14504868  0.60510244     0.06100
C1200       C  0.25926286  0.12152971  0.61523210    -0.13600
Br1201     Br  0.31897977  0.07299220  0.62438378    -0.05600
Br1202     Br  0.20915634  0.98353772  0.64569029     0.00000
Br1203     Br  0.25810818  0.05443050  0.57923540     0.00400
Br1204     Br  0.25919212  0.14774059  0.63002117    -0.04000
Br1205     Br  0.32093073  0.03238837  0.65047203     0.00500
Br1206     Br  0.20509254  0.03885628  0.62186651    -0.03300
Br1207     Br  0.26180713  0.00114416  0.60301330    -0.04100
Br1208     Br  0.25881445  0.20339974  0.60612820    -0.00200
C1209       C  0.18347942  0.00567358  0.68270982     0.01300
C1210       C  0.16759965  0.98158365  0.69015404     0.04100
C1211       C  0.13966329  0.98752750  0.69079822    -0.12000
C1212       C  0.12746123  0.01748886  0.68401947     0.23400
C1213       C  0.14326224  0.04183782  0.67664974    -0.12500
C1214       C  0.17130042  0.03599674  0.67600704     0.04800
C1215       C  0.09827282  0.02541201  0.68522648     0.27200
C1216       C  0.07976794  0.00813172  0.67751917    -0.13200
C1217       C  0.05253889  0.02002258  0.67784831     0.05300
C1218       C  0.04376049  0.04870860  0.68601057    -0.09200
C1219       C  0.06223941  0.06441289  0.69406375     0.06100
C1220       C  0.08933902  0.05247759  0.69372844    -0.13600
Br1221     Br  0.12632409  0.08300734  0.66740634    -0.05600
Br1222     Br  0.18406260  0.94077464  0.69972366     0.00000
Br1223     Br  0.02830531  0.00137230  0.66612897     0.00400
Br1224     Br  0.11482786  0.07526722  0.70442100    -0.04000
Br1225     Br  0.19274195  0.06817783  0.66559100     0.00500
Br1226     Br  0.11794694  0.95482781  0.70099909    -0.03300
Br1227     Br  0.09224224  0.97025487  0.66607040    -0.04100
Br1228     Br  0.05124771  0.10557632  0.70488024    -0.00200
C1229       C  0.44429796  0.77951832  0.68003633     0.01300
C1230       C  0.45124829  0.82075256  0.68214501     0.04100
C1231       C  0.43129387  0.85094799  0.68207670    -0.12000
C1232       C  0.40414163  0.84021492  0.68074651     0.23400
C1233       C  0.39679368  0.79915646  0.67971935    -0.12500
C1234       C  0.41670173  0.76883431  0.67922740     0.04800
C1235       C  0.38313410  0.87204297  0.68033741     0.27200
C1236       C  0.37278363  0.88869843  0.69057182    -0.13200
C1237       C  0.35109895  0.91610154  0.69016902     0.05300
C1238       C  0.33936661  0.92612397  0.67955580    -0.09200
C1239       C  0.35038955  0.91052333  0.66931038     0.06100
C1240       C  0.37239173  0.88381418  0.66968985    -0.13600
Br1241     Br  0.35913005  0.78475884  0.67894805    -0.05600
Br1242     Br  0.48751097  0.83677682  0.68624275     0.00000
Br1243     Br  0.33586541  0.93692377  0.70422218     0.00400
Br1244     Br  0.38673911  0.86105691  0.65568335    -0.04000
Br1245     Br  0.40525006  0.71323742  0.67734650     0.00500
Br1246     Br  0.44105566  0.90739768  0.68372668    -0.03300
Br1247     Br  0.38691876  0.87126607  0.70515285    -0.04100
Br1248     Br  0.33439824  0.92408189  0.65477235    -0.00200
C1249       C  0.22278196  0.74246287  0.89778650     0.01300
C1250       C  0.23681014  0.72213489  0.88878860     0.04100
C1251       C  0.23938820  0.74029604  0.87781429    -0.12000
C1252       C  0.22726041  0.77796842  0.87547889     0.23400
C1253       C  0.21312942  0.79815004  0.88419824    -0.12500
C1254       C  0.21128779  0.78141856  0.89529156     0.04800
C1255       C  0.22791340  0.79614775  0.86372779     0.27200
C1256       C  0.24788168  0.82457109  0.86069234    -0.13200
C1257       C  0.24665693  0.84536170  0.85008979     0.05300
C1258       C  0.22528557  0.83766296  0.84228889    -0.09200
C1259       C  0.20511784  0.80908332  0.84553516     0.06100
C1260       C  0.20660793  0.78852798  0.85612921    -0.13600
Br1261     Br  0.19574982  0.84926140  0.88069372    -0.05600
Br1262     Br  0.25185670  0.66867722  0.89091811     0.00000
Br1263     Br  0.27507620  0.88342224  0.84648635     0.00400
Br1264     Br  0.17887862  0.75034285  0.86054887    -0.04000
Br1265     Br  0.19319976  0.81487749  0.90666750     0.00500
Br1266     Br  0.25944614  0.71366940  0.86577845    -0.03300
Br1267     Br  0.27687578  0.83503909  0.87127107    -0.04100
Br1268     Br  0.17408401  0.79879349  0.83600051    -0.00200
C1269       C  0.44292750  0.79738491  0.80297848     0.01300
C1270       C  0.43347067  0.83131933  0.80915415     0.04100
C1271       C  0.40594484  0.84186101  0.80869443    -0.12000
C1272       C  0.38765098  0.81702163  0.80266431     0.23400
C1273       C  0.39736658  0.78435855  0.79608191    -0.12500
C1274       C  0.42500346  0.77568880  0.79586122     0.04800
C1275       C  0.35810698  0.82352456  0.80358136     0.27200
C1276       C  0.34401600  0.81076766  0.81350444    -0.13200
C1277       C  0.31583036  0.81503092  0.81412045     0.05300
C1278       C  0.30166353  0.83138621  0.80479372    -0.09200
C1279       C  0.31544356  0.84094192  0.79458613     0.06100
C1280       C  0.34367485  0.83862856  0.79411262    -0.13600
Br1281     Br  0.37255126  0.74948145  0.78800000    -0.05600
Br1282     Br  0.45741276  0.86088077  0.81909561     0.00000
Br1283     Br  0.29629704  0.79783055  0.82758857     0.00400
Br1284     Br  0.36263923  0.85758691  0.78065940    -0.04000
Br1285     Br  0.43819513  0.73323569  0.78588062     0.00500
Br1286     Br  0.39304405  0.88938129  0.81662205    -0.03300
Br1287     Br  0.36331100  0.78813259  0.82632395    -0.04100
Br1288     Br  0.29535055  0.85581885  0.78115261    -0.00200
C1289       C  0.05582617  0.10551235  0.81329277     0.01300
C1290       C  0.04965232  0.06725106  0.80837919     0.04100
C1291       C  0.06871743  0.03555552  0.80845386    -0.12000
C1292       C  0.09455148  0.04188492  0.81302169     0.23400
C1293       C  0.10087798  0.07988434  0.81791455    -0.12500
C1294       C  0.08154001  0.11140452  0.81817338     0.04800
C1295       C  0.11548492  0.00936594  0.81206060     0.27200
C1296       C  0.11674130  0.97742644  0.82012599    -0.13200
C1297       C  0.13706430  0.94750822  0.81925621     0.05300
C1298       C  0.15677461  0.95013087  0.81055775    -0.09200
C1299       C  0.15500059  0.98143608  0.80231913     0.06100
C1300       C  0.13409064  0.01022563  0.80290151    -0.13600
Br1301     Br  0.13618616  0.08847979  0.82429941    -0.05600
Br1302     Br  0.01573207  0.05834966  0.80071813     0.00000
Br1303     Br  0.13859076  0.90376755  0.83017829     0.00400
Br1304     Br  0.13077998  0.05089361  0.79108294    -0.04000
Br1305     Br  0.08997204  0.16183679  0.82571539     0.00500
Br1306     Br  0.05964112  0.98316538  0.80216084    -0.03300
Br1307     Br  0.09092013  0.97531390  0.83248804    -0.04100
Br1308     Br  0.18161141  0.98549086  0.79026472    -0.00200
C1309       C  0.23342565  0.92113442  0.77502962     0.01300
C1310       C  0.25640102  0.94202029  0.77076423     0.04100
C1311       C  0.26012583  0.94702331  0.75883254    -0.12000
C1312       C  0.24072678  0.93255151  0.75106729     0.23400
C1313       C  0.21696354  0.91461703  0.75526022    -0.12500
C1314       C  0.21329983  0.90863917  0.76713123     0.04800
C1315       C  0.24493320  0.93708201  0.73846290     0.27200
C1316       C  0.23787705  0.97355557  0.73301119    -0.13200
C1317       C  0.24111230  0.97772456  0.72107531     0.05300
C1318       C  0.25279145  0.94601193  0.71449047    -0.09200
C1319       C  0.25982508  0.90936280  0.71999943     0.06100
C1320       C  0.25542716  0.90473546  0.73190917    -0.13600
Br1321     Br  0.18929537  0.89848963  0.74458417    -0.05600
Br1322     Br  0.28367701  0.96297994  0.78094546     0.00000
Br1323     Br  0.22776570  0.02650390  0.71383173     0.00400
Br1324     Br  0.26381174  0.85409659  0.73936039    -0.04000
Br1325     Br  0.17980201  0.88462268  0.77230587     0.00500
Br1326     Br  0.29210893  0.97329655  0.75297554    -0.03300
Br1327     Br  0.22376600  0.01798863  0.74200208    -0.04100
Br1328     Br  0.27683508  0.86620141  0.71149183    -0.00200
C1329       C  0.21492985  0.39195449  0.34594326     0.01300
C1330       C  0.20885035  0.41340699  0.35611166     0.04100
C1331       C  0.20797208  0.39293290  0.36679416    -0.12000
C1332       C  0.21307604  0.35078753  0.36741401     0.23400
C1333       C  0.21890694  0.32934196  0.35725756    -0.12500
C1334       C  0.21958327  0.34955733  0.34660629     0.04800
C1335       C  0.21182309  0.32849046  0.37862520     0.27200
C1336       C  0.23570335  0.31528230  0.38400892    -0.13200
C1337       C  0.23451346  0.29240898  0.39425476     0.05300
C1338       C  0.20946990  0.28503603  0.39967985    -0.09200
C1339       C  0.18556305  0.29686174  0.39405222     0.06100
C1340       C  0.18672837  0.31796018  0.38352498    -0.13600
Br1341     Br  0.22584898  0.27171463  0.35795085    -0.05600
Br1342     Br  0.19951201  0.47008128  0.35530126     0.00000
Br1343     Br  0.26735239  0.27147743  0.40076181     0.00400
Br1344     Br  0.15383600  0.33215525  0.37574837    -0.04000
Br1345     Br  0.22707566  0.31817276  0.33295477     0.00500
Br1346     Br  0.19953788  0.42252226  0.38061317    -0.03300
Br1347     Br  0.27019013  0.32956172  0.37745791    -0.04100
Br1348     Br  0.15099530  0.28211985  0.40049417    -0.00200
C1349       C  0.24136569  0.59995924  0.09357515     0.01300
C1350       C  0.24237115  0.55689138  0.09378606     0.04100
C1351       C  0.24153893  0.53569825  0.10430288    -0.12000
C1352       C  0.24121231  0.55693489  0.11476255     0.23400
C1353       C  0.24068730  0.59973538  0.11463106    -0.12500
C1354       C  0.24034283  0.62116219  0.10411384     0.04800
C1355       C  0.24219885  0.53427547  0.12589487     0.27200
C1356       C  0.21830412  0.52515331  0.13196767    -0.13200
C1357       C  0.21947364  0.50654568  0.14288401     0.05300
C1358       C  0.24458452  0.49618960  0.14772066    -0.09200
C1359       C  0.26837557  0.50350145  0.14135932     0.06100
C1360       C  0.26717923  0.52229630  0.13049842    -0.13600
Br1361     Br  0.24067054  0.62889888  0.12896670    -0.05600
Br1362     Br  0.24423503  0.52582561  0.07974207     0.00000
Br1363     Br  0.18679239  0.49844349  0.15159158     0.00400
Br1364     Br  0.29986387  0.53230733  0.12195171    -0.04000
Br1365     Br  0.23995966  0.67966352  0.10425888     0.00500
Br1366     Br  0.24011079  0.47719487  0.10447678    -0.03300
Br1367     Br  0.18401327  0.53881689  0.12531562    -0.04100
Br1368     Br  0.30280114  0.48805955  0.14761443    -0.00200
C1369       C  0.23001331  0.47082542  0.27880870     0.01300
C1370       C  0.25611968  0.47592139  0.27406050     0.04100
C1371       C  0.26016351  0.47296899  0.26206613    -0.12000
C1372       C  0.23822370  0.46591485  0.25468661     0.23400
C1373       C  0.21200708  0.46384660  0.25932532    -0.12500
C1374       C  0.20788868  0.46657901  0.27126628     0.04800
C1375       C  0.24224041  0.46329495  0.24197476     0.27200
C1376       C  0.23683582  0.49742597  0.23513266    -0.13200
C1377       C  0.23777575  0.49449424  0.22309627     0.05300
C1378       C  0.24622164  0.45812487  0.21768249    -0.09200
C1379       C  0.25248551  0.42420403  0.22455832     0.06100
C1380       C  0.25012125  0.42662637  0.23665609    -0.13600
Br1381     Br  0.18159716  0.45658234  0.24925321    -0.05600
Br1382     Br  0.28675522  0.48545165  0.28382230     0.00000
Br1383     Br  0.22539415  0.54004971  0.21414940     0.00400
Br1384     Br  0.25809265  0.38002305  0.24601999    -0.04000
Br1385     Br  0.17147801  0.46593477  0.27718117     0.00500
Br1386     Br  0.29588911  0.47771058  0.25565379    -0.03300
Br1387     Br  0.22870723  0.54872147  0.24236331    -0.04100
Br1388     Br  0.26537067  0.37511856  0.21746763    -0.00200
C1389       C  0.48246717  0.37950896  0.39590405     0.01300
C1390       C  0.48283123  0.33629394  0.39501271     0.04100
C1391       C  0.48187777  0.31713769  0.38421517    -0.12000
C1392       C  0.48222204  0.34026664  0.37412986     0.23400
C1393       C  0.48195155  0.38288443  0.37482507    -0.12500
C1394       C  0.48145704  0.40250368  0.38561098     0.04800
C1395       C  0.48482360  0.31970608  0.36279671     0.27200
C1396       C  0.51062249  0.31235536  0.35817259    -0.13200
C1397       C  0.51339998  0.29532092  0.34716864     0.05300
C1398       C  0.49036137  0.28515649  0.34072956    -0.09200
C1399       C  0.46451489  0.29098760  0.34554668     0.06100
C1400       C  0.46178942  0.30780398  0.35661633    -0.13600
Br1401     Br  0.48297370  0.41415004  0.36081798    -0.05600
Br1402     Br  0.48470017  0.30144464  0.40831584     0.00000
Br1403     Br  0.54892410  0.28625854  0.34088742     0.00400
Br1404     Br  0.42656429  0.31493756  0.36332980    -0.04000
Br1405     Br  0.48082092  0.46091140  0.38590977     0.00500
Br1406     Br  0.48010739  0.25866605  0.38306538    -0.03300
Br1407     Br  0.54220004  0.32605990  0.36694776    -0.04100
Br1408     Br  0.43278625  0.27936150  0.33662142    -0.00200
C1409       C  0.42341494  0.31072303  0.30109644     0.01300
C1410       C  0.40333871  0.28516148  0.29635407     0.04100
C1411       C  0.37598210  0.29501276  0.29753406    -0.12000
C1412       C  0.36847183  0.33255412  0.30226102     0.23400
C1413       C  0.38852745  0.36056253  0.30553694    -0.12500
C1414       C  0.41589181  0.34914395  0.30542171     0.04800
C1415       C  0.33958872  0.34213044  0.30420952     0.27200
C1416       C  0.32261143  0.35135330  0.29490023    -0.13200
C1417       C  0.29564615  0.36245202  0.29691274     0.05300
C1418       C  0.28631423  0.36791460  0.30823518    -0.09200
C1419       C  0.30327474  0.35859380  0.31753189     0.06100
C1420       C  0.32934152  0.34365110  0.31550439    -0.13600
Br1421     Br  0.37819923  0.41429474  0.31045330    -0.05600
Br1422     Br  0.41295284  0.23655693  0.28797320     0.00000
Br1423     Br  0.27217466  0.37339891  0.28415359     0.00400
Br1424     Br  0.35134559  0.32657414  0.32824229    -0.04000
Br1425     Br  0.44215995  0.38507814  0.31210600     0.00500
Br1426     Br  0.34880336  0.25588488  0.29328285    -0.03300
Br1427     Br  0.33685360  0.35202425  0.27947121    -0.04100
Br1428     Br  0.29164525  0.36931169  0.33305957    -0.00200
C1429       C  0.47433743  0.10110822  0.14858908     0.01300
C1430       C  0.46660989  0.11886775  0.13809794     0.04100
C1431       C  0.46419115  0.09475853  0.12817081    -0.12000
C1432       C  0.47036715  0.05299050  0.12853144     0.23400
C1433       C  0.47813814  0.03516409  0.13896875    -0.12500
C1434       C  0.47968887  0.05886480  0.14900134     0.04800
C1435       C  0.47041934  0.02871957  0.11774645     0.27200
C1436       C  0.44887038  0.00243912  0.11508277    -0.13200
C1437       C  0.44796683  0.98313701  0.10429448     0.05300
C1438       C  0.46821981  0.99061959  0.09607871    -0.09200
C1439       C  0.49069740  0.01447702  0.09906827     0.06100
C1440       C  0.49196824  0.03297767  0.10993067    -0.13600
Br1441     Br  0.48742287  0.97830856  0.13939109    -0.05600
Br1442     Br  0.45827847  0.17595452  0.13733988     0.00000
Br1443     Br  0.41904139  0.94654447  0.10067465     0.00400
Br1444     Br  0.52315173  0.06450829  0.11416996    -0.04000
Br1445     Br  0.49032853  0.03298945  0.16315169     0.00500
Br1446     Br  0.45219402  0.11888298  0.11400892    -0.03300
Br1447     Br  0.42041370  0.99341835  0.12609933    -0.04100
Br1448     Br  0.51958849  0.02246610  0.08820333    -0.00200
C1449       C  0.31696965  0.39833417  0.17652508     0.01300
C1450       C  0.33877100  0.39617645  0.18423020     0.04100
C1451       C  0.35869655  0.36601008  0.18282792    -0.12000
C1452       C  0.35651967  0.33712899  0.17395686     0.23400
C1453       C  0.33542796  0.34025417  0.16599327    -0.12500
C1454       C  0.31605612  0.37116596  0.16712916     0.04800
C1455       C  0.37600445  0.30284039  0.17318967     0.27200
C1456       C  0.39913076  0.30622927  0.16630202    -0.13200
C1457       C  0.41789913  0.27424032  0.16578758     0.05300
C1458       C  0.41493041  0.23953854  0.17302094    -0.09200
C1459       C  0.39046863  0.23524636  0.17931215     0.06100
C1460       C  0.37105390  0.26656684  0.17920561    -0.13600
Br1461     Br  0.33260359  0.30102459  0.15377036    -0.05600
Br1462     Br  0.34034339  0.43219456  0.19722454     0.00000
Br1463     Br  0.44632456  0.27820981  0.15441415     0.00400
Br1464     Br  0.33735143  0.26031329  0.18735026    -0.04000
Br1465     Br  0.28841980  0.37644377  0.15561651     0.00500
Br1466     Br  0.38874256  0.36326098  0.19321987    -0.03300
Br1467     Br  0.40520502  0.35552463  0.15769930    -0.04100
Br1468     Br  0.38249107  0.18729592  0.18823529    -0.00200
C1469       C  0.50093606  0.24161651  0.27121971     0.01300
C1470       C  0.49348146  0.27529079  0.26438477     0.04100
C1471       C  0.49367475  0.27233558  0.25234044    -0.12000
C1472       C  0.50041906  0.23544202  0.24696913     0.23400
C1473       C  0.50839084  0.20203208  0.25373843    -0.12500
C1474       C  0.50893219  0.20524808  0.26581452     0.04800
C1475       C  0.49764467  0.23140628  0.23427535     0.27200
C1476       C  0.47177173  0.22877133  0.22938276    -0.13200
C1477       C  0.46890697  0.22504396  0.21744110     0.05300
C1478       C  0.49176808  0.22020642  0.21035619    -0.09200
C1479       C  0.51767759  0.22484678  0.21513212     0.06100
C1480       C  0.52054276  0.23121821  0.22704563    -0.13600
Br1481     Br  0.51847570  0.15172859  0.24645421    -0.05600
Br1482     Br  0.48144065  0.32528361  0.27138322     0.00000
Br1483     Br  0.43358889  0.22841685  0.21064854     0.00400
Br1484     Br  0.55583416  0.23880161  0.23353730    -0.04000
Br1485     Br  0.52201391  0.16052882  0.27489142     0.00500
Br1486     Br  0.48457808  0.31897500  0.24309764    -0.03300
Br1487     Br  0.44013516  0.22816466  0.23907447    -0.04100
Br1488     Br  0.54932358  0.22058375  0.20554932    -0.00200
C1489       C  0.98516618  0.79961657  0.34207482     0.01300
C1490       C  0.99060909  0.77900663  0.35243680     0.04100
C1491       C  0.98880971  0.79960227  0.36303220    -0.12000
C1492       C  0.98310036  0.84145631  0.36331850     0.23400
C1493       C  0.97804630  0.86223710  0.35304430    -0.12500
C1494       C  0.97805606  0.84121731  0.34255441     0.04800
C1495       C  0.98436712  0.86438471  0.37429213     0.27200
C1496       C  0.96081444  0.87214105  0.38072349    -0.13200
C1497       C  0.96236032  0.89372336  0.39114593     0.05300
C1498       C  0.98768830  0.90545869  0.39550458    -0.09200
C1499       C  0.01103694  0.89921400  0.38878370     0.06100
C1500       C  0.00930532  0.87931951  0.37814233    -0.13600
Br1501     Br  0.97260464  0.92021996  0.35333747    -0.05600
Br1502     Br  0.00303661  0.72390466  0.35222870     0.00000
Br1503     Br  0.92988239  0.90512562  0.39970207     0.00400
Br1504     Br  0.04122863  0.87122782  0.36892466    -0.04000
Br1505     Br  0.96721401  0.86994314  0.32896849     0.00500
Br1506     Br  0.99509045  0.77100798  0.37720913    -0.03300
Br1507     Br  0.92675267  0.85085283  0.37559033    -0.04100
Br1508     Br  0.04558047  0.91753408  0.39425250    -0.00200
C1509       C  0.15757877  0.52348282  0.31651925     0.01300
C1510       C  0.13317743  0.51930724  0.31026425     0.04100
C1511       C  0.11471997  0.55178619  0.30968541    -0.12000
C1512       C  0.11961922  0.58802617  0.31567410     0.23400
C1513       C  0.14299498  0.59201549  0.32227517    -0.12500
C1514       C  0.16182489  0.56012624  0.32281240     0.04800
C1515       C  0.09928034  0.62112832  0.31565451     0.27200
C1516       C  0.10098506  0.65308025  0.30767093    -0.13200
C1517       C  0.08130549  0.68397718  0.30758327     0.05300
C1518       C  0.05912287  0.68217546  0.31526228    -0.09200
C1519       C  0.05830810  0.65069786  0.32358103     0.06100
C1520       C  0.07839522  0.62069792  0.32380967    -0.13600
Br1521     Br  0.14903759  0.64205253  0.33054027    -0.05600
Br1522     Br  0.12387391  0.46975865  0.30237194     0.00000
Br1523     Br  0.08455991  0.72713083  0.29647816     0.00400
Br1524     Br  0.07720113  0.57817678  0.33522584    -0.04000
Br1525     Br  0.19242647  0.56769535  0.33282810     0.00500
Br1526     Br  0.08272944  0.54750323  0.30038917    -0.03300
Br1527     Br  0.12991053  0.65328203  0.29657582    -0.04100
Br1528     Br  0.02992269  0.64776275  0.33490212    -0.00200
C1529       C  0.97170669  0.61548583  0.14653537     0.01300
C1530       C  0.97213194  0.63900707  0.13638797     0.04100
C1531       C  0.97223444  0.62001333  0.12549546    -0.12000
C1532       C  0.97164332  0.57734472  0.12456225     0.23400
C1533       C  0.97125524  0.55376423  0.13463301    -0.12500
C1534       C  0.97077765  0.57251371  0.14552998     0.04800
C1535       C  0.96989259  0.55727669  0.11302480     0.27200
C1536       C  0.94467762  0.55258014  0.10766012    -0.13200
C1537       C  0.94286108  0.53481221  0.09666558     0.05300
C1538       C  0.96606947  0.51919178  0.09115945    -0.09200
C1539       C  0.99134246  0.52374281  0.09656797     0.06100
C1540       C  0.99325584  0.54320712  0.10735617    -0.13600
Br1541     Br  0.97161730  0.49535520  0.13342888    -0.05600
Br1542     Br  0.96997876  0.69729157  0.13730184     0.00000
Br1543     Br  0.90845200  0.53288801  0.08908759     0.00400
Br1544     Br  0.02798420  0.55212728  0.11424463    -0.04000
Br1545     Br  0.96882174  0.53821382  0.15897668     0.00500
Br1546     Br  0.97312563  0.65233647  0.11172121    -0.03300
Br1547     Br  0.91251912  0.57076413  0.11544280    -0.04100
Br1548     Br  0.02371945  0.50640874  0.08878042    -0.00200
C1549       C  0.03988029  0.58598305  0.18545015     0.01300
C1550       C  0.05185187  0.58824051  0.19637067     0.04100
C1551       C  0.07927167  0.57854412  0.19774872    -0.12000
C1552       C  0.09416088  0.56310158  0.18840438     0.23400
C1553       C  0.08133253  0.55675214  0.17779438    -0.12500
C1554       C  0.05471553  0.57002676  0.17617351     0.04800
C1555       C  0.12318178  0.55299168  0.18959712     0.27200
C1556       C  0.14305806  0.57809435  0.18457612    -0.13200
C1557       C  0.16990253  0.56447674  0.18364513     0.05300
C1558       C  0.17722042  0.52674003  0.18839533    -0.09200
C1559       C  0.15780199  0.50409671  0.19464769     0.06100
C1560       C  0.13073438  0.51634771  0.19481999    -0.13600
Br1561     Br  0.10052668  0.53059308  0.16541631    -0.05600
Br1562     Br  0.03086499  0.60635381  0.20931534     0.00000
Br1563     Br  0.19565011  0.59575653  0.17490666     0.00400
Br1564     Br  0.10361752  0.48136011  0.20145813    -0.04000
Br1565     Br  0.03942962  0.56963131  0.16102373     0.00500
Br1566     Br  0.09685049  0.58886244  0.21217891    -0.03300
Br1567     Br  0.13312925  0.63043363  0.17856420    -0.04100
Br1568     Br  0.16797765  0.45600761  0.20310327    -0.00200
C1569       C  0.98174171  0.69188551  0.21435510     0.01300
C1570       C  0.95968814  0.68276091  0.22179386     0.04100
C1571       C  0.96253755  0.68534509  0.23380006    -0.12000
C1572       C  0.98701176  0.69798636  0.23863098     0.23400
C1573       C  0.00878148  0.70807017  0.23138575    -0.12500
C1574       C  0.00633424  0.70488162  0.21933093     0.04800
C1575       C  0.98874901  0.70455074  0.25128059     0.27200
C1576       C  0.98124857  0.74241859  0.25583804    -0.13200
C1577       C  0.98103832  0.74865347  0.26776367     0.05300
C1578       C  0.98934173  0.71746944  0.27529801    -0.09200
C1579       C  0.99719331  0.67963291  0.27075629     0.06100
C1580       C  0.99661609  0.67305138  0.25877258    -0.13600
Br1581     Br  0.04202739  0.72636376  0.23815486    -0.05600
Br1582     Br  0.92461708  0.66832551  0.21585792     0.00000
Br1583     Br  0.96809273  0.79980376  0.27370784     0.00400
Br1584     Br  0.00689094  0.62116345  0.25257502    -0.04000
Br1585     Br  0.03749662  0.71654197  0.20993865     0.00500
Br1586     Br  0.93267995  0.67195789  0.24382279    -0.03300
Br1587     Br  0.97146021  0.78606487  0.24563097    -0.04100
Br1588     Br  0.01012023  0.63777542  0.28089338    -0.00200
C1589       C  0.71133402  0.88701264  0.34325077     0.01300
C1590       C  0.71016976  0.84392683  0.34336314     0.04100
C1591       C  0.71017094  0.82253947  0.35383035    -0.12000
C1592       C  0.71204386  0.84343329  0.36430754     0.23400
C1593       C  0.71288722  0.88618186  0.36429955    -0.12500
C1594       C  0.71217428  0.90793997  0.35384881     0.04800
C1595       C  0.71278426  0.81997486  0.37527517     0.27200
C1596       C  0.68865099  0.81043955  0.38107602    -0.13200
C1597       C  0.68913176  0.78638541  0.39107583     0.05300
C1598       C  0.71381680  0.77182461  0.39545382    -0.09200
C1599       C  0.73793017  0.78044641  0.38944319     0.06100
C1600       C  0.73741296  0.80486788  0.37948551    -0.13600
Br1601     Br  0.71485670  0.91478744  0.37869068    -0.05600
Br1602     Br  0.70994969  0.81282271  0.32929428     0.00000
Br1603     Br  0.65567838  0.77202825  0.39854971     0.00400
Br1604     Br  0.77054500  0.81906730  0.37177016    -0.04000
Br1605     Br  0.71058430  0.96640523  0.35422562     0.00500
Br1606     Br  0.70749863  0.76407785  0.35391509    -0.03300
Br1607     Br  0.65493301  0.83107338  0.37536354    -0.04100
Br1608     Br  0.77189054  0.76025212  0.39502574    -0.00200
C1609       C  0.78201328  0.86653606  0.30553729     0.01300
C1610       C  0.79785941  0.85575803  0.31504508     0.04100
C1611       C  0.82470472  0.84367850  0.31345042    -0.12000
C1612       C  0.83568947  0.84185827  0.30230409     0.23400
C1613       C  0.81942607  0.85047282  0.29273593    -0.12500
C1614       C  0.79244518  0.86231122  0.29434626     0.04800
C1615       C  0.86419072  0.82986586  0.30071737     0.27200
C1616       C  0.88499847  0.85864688  0.30184949    -0.13200
C1617       C  0.91215507  0.84613233  0.30160219     0.05300
C1618       C  0.91835369  0.80435975  0.30090880    -0.09200
C1619       C  0.89742836  0.77666052  0.29815253     0.06100
C1620       C  0.87046139  0.78926464  0.29832472    -0.13600
Br1621     Br  0.83477260  0.84852469  0.27752178    -0.05600
Br1622     Br  0.78275969  0.85881008  0.33031356     0.00000
Br1623     Br  0.94009361  0.88662213  0.30167310     0.00400
Br1624     Br  0.84187075  0.75052251  0.29581021    -0.04000
Br1625     Br  0.77028618  0.87483544  0.28128553     0.00500
Br1626     Br  0.84690855  0.83196449  0.32658086    -0.03300
Br1627     Br  0.87600284  0.91491991  0.30425341    -0.04100
Br1628     Br  0.90533004  0.72159109  0.29345883    -0.00200
C1629       C  0.56739090  0.19446087  0.31234738     0.01300
C1630       C  0.58749050  0.18944094  0.30388894     0.04100
C1631       C  0.60728810  0.15918700  0.30522308    -0.12000
C1632       C  0.60653336  0.13321396  0.31483326     0.23400
C1633       C  0.58735096  0.13964651  0.32355993    -0.12500
C1634       C  0.56794023  0.17028280  0.32235381     0.04800
C1635       C  0.62426855  0.09701029  0.31535230     0.27200
C1636       C  0.61691584  0.06140904  0.30947768    -0.13200
C1637       C  0.63342429  0.02666619  0.30995797     0.05300
C1638       C  0.65774826  0.02740637  0.31631556    -0.09200
C1639       C  0.66348970  0.06236933  0.32310118     0.06100
C1640       C  0.64731893  0.09724495  0.32225595    -0.13600
Br1641     Br  0.58669243  0.10473352  0.33686511    -0.05600
Br1642     Br  0.58610265  0.22059338  0.28990791     0.00000
Br1643     Br  0.62147097  0.97875182  0.30188411     0.00400
Br1644     Br  0.65693757  0.14608315  0.33043698    -0.04000
Br1645     Br  0.54118466  0.17763486  0.33424593     0.00500
Br1646     Br  0.63469665  0.15168589  0.29365002    -0.03300
Br1647     Br  0.58409910  0.06087549  0.30061845    -0.04100
Br1648     Br  0.69211652  0.06278829  0.33432294    -0.00200
C1649       C  0.74054995  0.12970069  0.09390306     0.01300
C1650       C  0.74363625  0.15281069  0.10403629     0.04100
C1651       C  0.74531286  0.13337068  0.11484703    -0.12000
C1652       C  0.74371483  0.09070959  0.11568922     0.23400
C1653       C  0.74002505  0.06768537  0.10564864    -0.12500
C1654       C  0.73871920  0.08686284  0.09483471     0.04800
C1655       C  0.74701026  0.06982432  0.12703670     0.27200
C1656       C  0.77299538  0.06290553  0.13145655    -0.13200
C1657       C  0.77634358  0.04379147  0.14219165     0.05300
C1658       C  0.75372031  0.03016741  0.14853330    -0.09200
C1659       C  0.72765677  0.03643837  0.14399019     0.06100
C1660       C  0.72435878  0.05652459  0.13336268    -0.13600
Br1661     Br  0.73658241  0.00948646  0.10678115    -0.05600
Br1662     Br  0.74712693  0.21095645  0.10314143     0.00000
Br1663     Br  0.81220848  0.03655616  0.14818432     0.00400
Br1664     Br  0.68871411  0.06744924  0.12762925    -0.04000
Br1665     Br  0.73346613  0.05366511  0.08137218     0.00500
Br1666     Br  0.74993040  0.16501082  0.12861289    -0.03300
Br1667     Br  0.80413102  0.08025017  0.12279461    -0.04100
Br1668     Br  0.69617443  0.02060498  0.15269339    -0.00200
C1669       C  0.55185561  0.10422914  0.18510341     0.01300
C1670       C  0.56228700  0.10591412  0.19629238     0.04100
C1671       C  0.59018874  0.10182027  0.19804657    -0.12000
C1672       C  0.60714499  0.09038858  0.18884017     0.23400
C1673       C  0.59590322  0.08333810  0.17792598    -0.12500
C1674       C  0.56871594  0.09255543  0.17592254     0.04800
C1675       C  0.63644693  0.08348819  0.19056712     0.27200
C1676       C  0.65568313  0.10832632  0.18495350    -0.13200
C1677       C  0.68278274  0.09573093  0.18415345     0.05300
C1678       C  0.69094745  0.05980745  0.18966175    -0.09200
C1679       C  0.67238218  0.03835027  0.19660819     0.06100
C1680       C  0.64504596  0.04890542  0.19660108    -0.13600
Br1681     Br  0.61776616  0.06110827  0.16569184    -0.05600
Br1682     Br  0.53837642  0.11464435  0.20913297     0.00000
Br1683     Br  0.70768020  0.12490161  0.17444892     0.00400
Br1684     Br  0.61914765  0.01292184  0.20370645    -0.04000
Br1685     Br  0.55483323  0.09039188  0.16050780     0.00500
Br1686     Br  0.60520157  0.11438314  0.21285481    -0.03300
Br1687     Br  0.64439671  0.15779581  0.17755381    -0.04100
Br1688     Br  0.68414027  0.99294352  0.20580828    -0.00200
C1689       C  0.82491813  0.91899947  0.17828983     0.01300
C1690       C  0.83163367  0.90262949  0.16748123     0.04100
C1691       C  0.85055816  0.87082970  0.16659299    -0.12000
C1692       C  0.86144792  0.85317769  0.17657923     0.23400
C1693       C  0.85480197  0.86978635  0.18739778    -0.12500
C1694       C  0.83708768  0.90310546  0.18821566     0.04800
C1695       C  0.88073446  0.81835961  0.17580145     0.27200
C1696       C  0.87153113  0.77831084  0.17407365    -0.13200
C1697       C  0.88982056  0.74533749  0.17414618     0.05300
C1698       C  0.91752097  0.75191817  0.17640692    -0.09200
C1699       C  0.92652525  0.79261771  0.17807904     0.06100
C1700       C  0.90836830  0.82535314  0.17737934    -0.13600
Br1701     Br  0.86964403  0.84630663  0.20115048    -0.05600
Br1702     Br  0.81426665  0.92322198  0.15392688     0.00000
Br1703     Br  0.87665858  0.69174505  0.17058292     0.00400
Br1704     Br  0.92125355  0.88057505  0.17856582    -0.04000
Br1705     Br  0.82864541  0.92615764  0.20300187     0.00500
Br1706     Br  0.86205141  0.85205116  0.15170853    -0.03300
Br1707     Br  0.83365456  0.76878253  0.17163089    -0.04100
Br1708     Br  0.96333919  0.80527206  0.18219697    -0.00200
C1709       C  0.73058143  0.98248703  0.27826130     0.01300
C1710       C  0.70894387  0.98615825  0.27050015     0.04100
C1711       C  0.71382829  0.98685207  0.25859319    -0.12000
C1712       C  0.74037538  0.98408730  0.25435468     0.23400
C1713       C  0.76210205  0.98361776  0.26208664    -0.12500
C1714       C  0.75729892  0.98348703  0.27401296     0.04800
C1715       C  0.74553512  0.98321840  0.24176115     0.27200
C1716       C  0.74754538  0.94603605  0.23585444    -0.13200
C1717       C  0.75287757  0.94538583  0.22393911     0.05300
C1718       C  0.75559358  0.98211611  0.21777121    -0.09200
C1719       C  0.75327923  0.01948394  0.22381935     0.06100
C1720       C  0.74858913  0.01980584  0.23573473    -0.13600
Br1721     Br  0.79848733  0.98182644  0.25624710    -0.05600
Br1722     Br  0.67257771  0.99182871  0.27621211     0.00000
Br1723     Br  0.75781627  0.89402931  0.21631639     0.00400
Br1724     Br  0.74591907  0.07060422  0.24394413    -0.04000
Br1725     Br  0.78756227  0.98296839  0.28436098     0.00500
Br1726     Br  0.68415411  0.99090868  0.24803090    -0.03300
Br1727     Br  0.74276074  0.89601341  0.24419595    -0.04100
Br1728     Br  0.75478497  0.07123324  0.21600083    -0.00200
loop_ 
_geom_bond_atom_site_label_1 
_geom_bond_atom_site_label_2 
_geom_bond_distance 
_geom_bond_site_symmetry_2 
_ccdc_geom_bond_type 
O1           Cu9   2.049       .  S
O1           C11   1.283       .  A
O2           Cu9   2.051   1_565  S
O2           C12   1.284       .  A
O3           Cu9   1.999       .  S
O3           C13   1.275       .  A
O4           Cu9   1.986       .  S
O4           C14   1.273   1_545  A
O5          Cu10   2.050       .  S
O5           C14   1.284       .  A
O6          Cu10   2.048       .  S
O6           C13   1.284   1_565  A
O7          Cu10   1.991       .  S
O7           C12   1.273       .  A
O8          Cu10   1.959   1_545  S
O8           C11   1.271       .  A
Cu9         Cu10   2.367   1_545  S
C11        C1678   1.477       .  S
C12        C1689   1.482       .  S
C13        C1658   1.494       .  S
C14        C1718   1.496       .  S
O15         Cu23   1.995       .  S
O15          C25   1.276       .  A
O16         Cu23   1.999       .  S
O16          C26   1.275       .  A
O17         Cu23   2.034       .  S
O17          C27   1.284       .  A
O18         Cu23   2.038       .  S
O18          C28   1.281       .  A
O19         Cu24   1.966       .  S
O19          C28   1.272       .  A
O20         Cu24   1.980   1_545  S
O20          C27   1.268   1_545  A
O21         Cu24   2.041       .  S
O21          C26   1.282       .  A
O22         Cu24   2.030       .  S
O22          C25   1.280       .  A
Cu23        Cu24   2.365       .  S
C25        C1709   1.485       .  S
C26        C1589   1.498       .  S
C27        C1638   1.501   1_565  S
C28        C1609   1.468       .  S
O29         Cu37   2.059       .  S
O29          C39   1.285       .  A
O30         Cu37   2.070       .  S
O30          C40   1.287       .  A
O31         Cu37   1.966   1_455  S
O31          C41   1.270       .  A
O32         Cu37   1.980       .  S
O32          C42   1.270       .  A
O33         Cu38   2.068       .  S
O33          C42   1.286       .  A
O34         Cu38   2.056       .  S
O34          C41   1.284   1_655  A
O35         Cu38   1.979       .  S
O35          C40   1.271       .  A
O36         Cu38   2.003       .  S
O36          C39   1.274       .  A
Cu37        Cu38   2.356       .  S
C39        C1529   1.503       .  S
C40        C1569   1.505       .  S
C41        C1549   1.473       .  S
C42        C1698   1.507       .  S
O43         Cu51   1.961       .  S
O43          C53   1.271       .  A
O44         Cu51   1.976   1_455  S
O44          C54   1.272       .  A
O45         Cu51   2.053       .  S
O45          C55   1.284       .  A
O46         Cu51   2.049       .  S
O46          C56   1.283       .  A
O47         Cu52   1.982       .  S
O47          C56   1.273   1_455  A
O48         Cu52   1.994       .  S
O48          C55   1.275   1_455  A
O49         Cu52   2.049       .  S
O49          C54   1.284       .  A
O50         Cu52   2.054   1_655  S
O50          C53   1.283       .  A
Cu51        Cu52   2.362   1_655  S
C53        C1618   1.492       .  S
C54        C1518   1.494       .  S
C55        C1489   1.495       .  S
C56        C1578   1.484       .  S
O57         Cu65   2.046       .  S
O57          C67   1.283       .  A
O58         Cu65   2.042       .  S
O58          C68   1.282       .  A
O59         Cu65   1.987       .  S
O59          C69   1.275       .  A
O60         Cu65   1.988       .  S
O60          C70   1.273       .  A
O61         Cu66   2.042       .  S
O61          C70   1.283       .  A
O62         Cu66   2.042       .  S
O62          C69   1.282       .  A
O63         Cu66   1.971       .  S
O63          C68   1.271       .  A
O64         Cu66   1.986       .  S
O64          C67   1.271       .  A
Cu65        Cu66   2.365       .  S
C67        C1458   1.508       .  S
C68        C1669   1.472       .  S
C69        C1478   1.484       .  S
C70        C1429   1.488       .  S
O71         Cu79   1.956       .  S
O71          C81   1.270       .  A
O72         Cu79   1.969       .  S
O72          C82   1.271       .  A
O73         Cu79   2.035       .  S
O73          C83   1.282       .  A
O74         Cu79   2.044       .  S
O74          C84   1.283       .  A
O75         Cu80   1.989       .  S
O75          C84   1.274       .  A
O76         Cu80   1.992       .  S
O76          C83   1.274       .  A
O77         Cu80   2.048       .  S
O77          C82   1.283       .  A
O78         Cu80   2.051       .  S
O78          C81   1.284       .  A
Cu79        Cu80   2.369       .  S
C81        C1409   1.486       .  S
C82        C1629   1.477       .  S
C83        C1398   1.480       .  S
C84        C1469   1.488       .  S
O85         Cu93   2.056       .  S
O85          C95   1.284       .  A
O86         Cu93   2.062       .  S
O86          C96   1.285       .  A
O87         Cu93   1.960       .  S
O87          C97   1.270       .  A
O88         Cu93   1.983       .  S
O88          C98   1.273       .  A
O89         Cu94   2.054       .  S
O89          C98   1.284       .  A
O90         Cu94   2.048       .  S
O90          C97   1.284       .  A
O91         Cu94   1.991       .  S
O91          C96   1.274       .  A
O92         Cu94   1.994       .  S
O92          C95   1.274       .  A
Cu93        Cu94   2.368       .  S
C95        C1358   1.489       .  S
C96        C1378   1.494       .  S
C97        C1558   1.483       .  S
C98        C1449   1.488       .  S
O99        Cu107   1.985       .  S
O99         C109   1.271       .  A
O100       Cu107   1.970       .  S
O100        C110   1.271       .  A
O101       Cu107   2.056       .  S
O101        C111   1.284       .  A
O102       Cu107   2.064       .  S
O102        C112   1.286       .  A
O103       Cu108   1.990       .  S
O103        C112   1.273       .  A
O104       Cu108   1.987       .  S
O104        C111   1.274       .  A
O105       Cu108   2.038       .  S
O105        C110   1.282       .  A
O106       Cu108   2.044       .  S
O106        C109   1.283       .  A
Cu107      Cu108   2.363       .  S
C109       C1509   1.507       .  S
C110       C1418   1.470       .  S
C111       C1369   1.497       .  S
C112       C1329   1.496       .  S
O113       Cu121   1.991       .  S
O113        C123   1.274       .  A
O114       Cu121   2.000       .  S
O114        C124   1.275       .  A
O115       Cu121   2.061       .  S
O115        C125   1.285       .  A
O116       Cu121   2.035       .  S
O116        C126   1.280       .  A
O117       Cu122   1.983       .  S
O117        C126   1.273       .  A
O118       Cu122   1.987       .  S
O118        C125   1.273       .  A
O119       Cu122   2.047       .  S
O119        C124   1.283       .  A
O120       Cu122   2.042       .  S
O120        C123   1.282       .  A
Cu121      Cu122   2.365       .  S
C123       C1309   1.499       .  S
C124       C1258   1.507       .  S
C125       C1298   1.486       .  S
C126       C1278   1.470       .  S
O127       Cu135   2.051       .  S
O127        C137   1.284       .  A
O128       Cu135   2.047       .  S
O128        C138   1.284       .  A
O129       Cu135   1.978       .  S
O129        C139   1.272       .  A
O130       Cu135   1.966       .  S
O130        C140   1.271       .  A
O131       Cu136   2.038       .  S
O131        C140   1.282   1_545  A
O132       Cu136   2.035   1_565  S
O132        C139   1.281       .  A
O133       Cu136   1.990       .  S
O133        C138   1.274   1_545  A
O134       Cu136   1.982   1_565  S
O134        C137   1.273       .  A
Cu135      Cu136   2.373   1_565  S
C137       C1318   1.491       .  S
C138       C1189   1.487   1_565  S
C139       C1238   1.471       .  S
C140       C1209   1.471   1_565  S
O141       Cu149   1.979       .  S
O141        C151   1.272       .  A
O142       Cu149   1.970       .  S
O142        C152   1.271       .  A
O143       Cu149   2.055       .  S
O143        C153   1.285       .  A
O144       Cu149   2.053       .  S
O144        C154   1.284       .  A
O145       Cu150   1.957       .  S
O145        C154   1.270       .  A
O146       Cu150   1.975       .  S
O146        C153   1.272       .  A
O147       Cu150   2.054       .  S
O147        C152   1.285       .  A
O148       Cu150   2.059       .  S
O148        C151   1.285       .  A
Cu149      Cu150   2.368       .  S
C151       C1169   1.488       .  S
C152       C1129   1.485       .  S
C153       C1149   1.489       .  S
C154       C1269   1.479       .  S
O155       Cu163   2.012       .  S
O155        C165   1.277       .  A
O156       Cu163   2.022       .  S
O156        C166   1.279       .  A
O157       Cu163   2.009       .  S
O157        C167   1.277       .  A
O158       Cu163   1.988       .  S
O158        C168   1.274       .  A
O159       Cu164   2.053       .  S
O159        C168   1.283       .  A
O160       Cu164   2.052       .  S
O160        C167   1.283       .  A
O161       Cu164   1.979       .  S
O161        C166   1.272       .  A
O162       Cu164   1.985       .  S
O162        C165   1.274       .  A
Cu163      Cu164   2.360       .  S
C165       C1109   1.465       .  S
C166       C1229   1.491       .  S
C167       C1089   1.499       .  S
C168       C1178   1.503       .  S
O169       Cu177   2.049       .  S
O169        C179   1.284       .  A
O170       Cu177   2.041       .  S
O170        C180   1.283       .  A
O171       Cu177   1.994       .  S
O171        C181   1.274       .  A
O172       Cu177   1.987       .  S
O172        C182   1.273       .  A
O173       Cu178   2.052       .  S
O173        C182   1.284       .  A
O174       Cu178   2.047       .  S
O174        C181   1.284       .  A
O175       Cu178   1.951       .  S
O175        C180   1.270       .  A
O176       Cu178   1.975       .  S
O176        C179   1.272       .  A
Cu177      Cu178   2.369       .  S
C179       C1049   1.493       .  S
C180       C1118   1.472       .  S
C181       C1069   1.486       .  S
C182       C1038   1.489       .  S
O183       Cu191   1.973       .  S
O183        C193   1.272       .  A
O184       Cu191   1.991       .  S
O184        C194   1.274       .  A
O185       Cu191   2.064       .  S
O185        C195   1.285       .  A
O186       Cu191   2.052       .  S
O186        C196   1.283       .  A
O187       Cu192   1.997       .  S
O187        C196   1.275       .  A
O188       Cu192   1.996       .  S
O188        C195   1.273       .  A
O189       Cu192   2.050       .  S
O189        C194   1.283       .  A
O190       Cu192   2.050       .  S
O190        C193   1.283       .  A
Cu191      Cu192   2.356       .  S
C193       C1018   1.480       .  S
C194       C1158   1.502       .  S
C195        C989   1.517       .  S
C196       C1078   1.508       .  S
O197       Cu205   2.067       .  S
O197        C207   1.286       .  A
O198       Cu205   2.057       .  S
O198        C208   1.285       .  A
O199       Cu205   1.950   1_455  S
O199        C209   1.268       .  A
O200       Cu205   1.980       .  S
O200        C210   1.272       .  A
O201       Cu206   2.047       .  S
O201        C210   1.283       .  A
O202       Cu206   2.060       .  S
O202        C209   1.285   1_655  A
O203       Cu206   1.975       .  S
O203        C208   1.271       .  A
O204       Cu206   1.977       .  S
O204        C207   1.269       .  A
Cu205      Cu206   2.362       .  S
C207        C949   1.515       .  S
C208        C978   1.487       .  S
C209       C1218   1.472       .  S
C210       C1058   1.488       .  S
O211       Cu219   1.983       .  S
O211        C221   1.273   1_455  A
O212       Cu219   1.994       .  S
O212        C222   1.274   1_455  A
O213       Cu219   2.051       .  S
O213        C223   1.284       .  A
O214       Cu219   2.046   1_655  S
O214        C224   1.282       .  A
O215       Cu220   1.980       .  S
O215        C224   1.272       .  A
O216       Cu220   2.004   1_455  S
O216        C223   1.276       .  A
O217       Cu220   2.044       .  S
O217        C222   1.283       .  A
O218       Cu220   2.045       .  S
O218        C221   1.283       .  A
Cu219      Cu220   2.362   1_455  S
C221        C969   1.492       .  S
C222        C929   1.501       .  S
C223       C1289   1.497       .  S
C224       C1009   1.473       .  S
O225       Cu233   2.029       .  S
O225        C235   1.280       .  A
O226       Cu233   2.038       .  S
O226        C236   1.282       .  A
O227       Cu233   1.980       .  S
O227        C237   1.273       .  A
O228       Cu233   2.000       .  S
O228        C238   1.275       .  A
O229       Cu234   2.055       .  S
O229        C238   1.283       .  A
O230       Cu234   2.054       .  S
O230        C237   1.284       .  A
O231       Cu234   1.966       .  S
O231        C236   1.271       .  A
O232       Cu234   1.989       .  S
O232        C235   1.274       .  A
Cu233      Cu234   2.367       .  S
C235        C889   1.473       .  S
C236        C869   1.478       .  S
C237        C909   1.486       .  S
C238       C1029   1.511       .  S
O239       Cu247   1.988       .  S
O239        C249   1.274       .  A
O240       Cu247   1.988       .  S
O240        C250   1.274       .  A
O241       Cu247   2.036       .  S
O241        C251   1.281       .  A
O242       Cu247   2.051       .  S
O242        C252   1.283       .  A
O243       Cu248   1.968       .  S
O243        C252   1.272       .  A
O244       Cu248   1.967       .  S
O244        C251   1.272       .  A
O245       Cu248   2.049       .  S
O245        C250   1.282       .  A
O246       Cu248   2.054       .  S
O246        C249   1.284       .  A
Cu247      Cu248   2.364       .  S
C249       C1598   1.489       .  S
C250        C918   1.504       .  S
C251        C829   1.472       .  S
C252        C849   1.494       .  S
O253       Cu261   1.974       .  S
O253        C263   1.272   1_455  A
O254       Cu261   1.979       .  S
O254        C264   1.273   1_455  A
O255       Cu261   2.039       .  S
O255        C265   1.282       .  A
O256       Cu261   2.041   1_655  S
O256        C266   1.282       .  A
O257       Cu262   1.944       .  S
O257        C266   1.269       .  A
O258       Cu262   1.967   1_455  S
O258        C265   1.271       .  A
O259       Cu262   2.044       .  S
O259        C264   1.283       .  A
O260       Cu262   2.042       .  S
O260        C263   1.283       .  A
Cu261      Cu262   2.373   1_455  S
C263        C809   1.485       .  S
C264       C1498   1.481       .  S
C265        C789   1.474   1_565  S
C266        C838   1.466       .  S
O267       Cu275   2.049       .  S
O267        C277   1.284   1_455  A
O268       Cu275   2.067       .  S
O268        C278   1.285   1_455  A
O269       Cu275   1.974       .  S
O269        C279   1.270       .  A
O270       Cu275   1.984   1_655  S
O270        C280   1.272       .  A
O271       Cu276   2.053       .  S
O271        C280   1.284       .  A
O272       Cu276   2.046   1_455  S
O272        C279   1.282       .  A
O273       Cu276   1.968       .  S
O273        C278   1.271       .  A
O274       Cu276   2.001       .  S
O274        C277   1.275       .  A
Cu275      Cu276   2.360   1_455  S
C277        C958   1.496       .  S
C278        C818   1.483       .  S
C279        C769   1.503       .  S
C280        C898   1.502       .  S
O281       Cu289   1.961       .  S
O281        C291   1.271       .  A
O282       Cu289   1.947       .  S
O282        C292   1.269       .  A
O283       Cu289   2.036       .  S
O283        C293   1.282       .  A
O284       Cu289   2.049       .  S
O284        C294   1.283       .  A
O285       Cu290   1.997       .  S
O285        C294   1.276       .  A
O286       Cu290   1.999       .  S
O286        C293   1.275       .  A
O287       Cu290   2.028       .  S
O287        C292   1.280       .  A
O288       Cu290   2.025       .  S
O288        C291   1.281       .  A
Cu289      Cu290   2.370       .  S
C291        C798   1.477       .  S
C292        C729   1.456       .  S
C293        C758   1.493       .  S
C294       C1338   1.492       .  S
O295       Cu303   2.039       .  S
O295        C305   1.282       .  A
O296       Cu303   2.038       .  S
O296        C306   1.282       .  A
O297       Cu303   1.977       .  S
O297        C307   1.272       .  A
O298       Cu303   1.988       .  S
O298        C308   1.273       .  A
O299       Cu304   2.051       .  S
O299        C308   1.284       .  A
O300       Cu304   2.048       .  S
O300        C307   1.284       .  A
O301       Cu304   1.971       .  S
O301        C306   1.272       .  A
O302       Cu304   1.995       .  S
O302        C305   1.274       .  A
Cu303      Cu304   2.370       .  S
C305        C709   1.484       .  S
C306        C778   1.471       .  S
C307        C749   1.487       .  S
C308       C1198   1.494       .  S
O309       Cu317   2.053       .  S
O309        C319   1.284       .  A
O310       Cu317   2.052       .  S
O310        C320   1.283       .  A
O311       Cu317   1.965       .  S
O311        C321   1.271       .  A
O312       Cu317   1.997       .  S
O312        C322   1.275       .  A
O313       Cu318   2.043       .  S
O313        C322   1.281       .  A
O314       Cu318   2.027       .  S
O314        C321   1.279       .  A
O315       Cu318   2.002       .  S
O315        C320   1.276       .  A
O316       Cu318   2.013       .  S
O316        C319   1.277       .  A
Cu317      Cu318   2.366       .  S
C319       C1098   1.510       .  S
C320        C689   1.504       .  S
C321        C878   1.460       .  S
C322        C718   1.484       .  S
O323       Cu331   1.978       .  S
O323        C333   1.272       .  A
O324       Cu331   1.953       .  S
O324        C334   1.269       .  A
O325       Cu331   2.063       .  S
O325        C335   1.286       .  A
O326       Cu331   2.060       .  S
O326        C336   1.285       .  A
O327       Cu332   1.995       .  S
O327        C336   1.273       .  A
O328       Cu332   1.984       .  S
O328        C335   1.272       .  A
O329       Cu332   2.052       .  S
O329        C334   1.284       .  A
O330       Cu332   2.046       .  S
O330        C333   1.283       .  A
Cu331      Cu332   2.364       .  S
C333        C858   1.488       .  S
C334        C738   1.479       .  S
C335        C698   1.490       .  S
C336       C1389   1.508       .  S
O337       Cu345   1.966       .  S
O337        C347   1.267       .  A
O338       Cu345   1.968       .  S
O338        C348   1.270       .  A
O339       Cu345   2.049       .  S
O339        C349   1.284       .  A
O340       Cu345   2.030       .  S
O340        C350   1.280       .  A
O341       Cu346   1.993       .  S
O341        C350   1.275       .  A
O342       Cu346   1.964       .  S
O342        C349   1.270       .  A
O343       Cu346   2.060       .  S
O343        C348   1.286       .  A
O344       Cu346   2.071       .  S
O344        C347   1.286       .  A
Cu345      Cu346   2.362       .  S
C347       C1249   1.516       .  S
C348        C669   1.489       .  S
C349        C629   1.473       .  S
C350        C658   1.485       .  S
O351       Cu359   2.040       .  S
O351        C361   1.283       .  A
O352       Cu359   2.038       .  S
O352        C362   1.281       .  A
O353       Cu359   1.991       .  S
O353        C363   1.275       .  A
O354       Cu359   2.008       .  S
O354        C364   1.276       .  A
O355       Cu360   2.046       .  S
O355        C364   1.283       .  A
O356       Cu360   2.037       .  S
O356        C363   1.282       .  A
O357       Cu360   1.974       .  S
O357        C362   1.273       .  A
O358       Cu360   1.992       .  S
O358        C361   1.274       .  A
Cu359      Cu360   2.370       .  S
C361        C609   1.481       .  S
C362        C589   1.470       .  S
C363        C678   1.489       .  S
C364       C1349   1.499       .  S
O365       Cu373   2.011       .  S
O365        C375   1.277       .  A
O366       Cu373   2.011       .  S
O366        C376   1.277       .  A
O367       Cu373   2.038       .  S
O367        C377   1.281       .  A
O368       Cu373   2.046       .  S
O368        C378   1.283       .  A
O369       Cu374   1.978       .  S
O369        C378   1.273       .  A
O370       Cu374   1.962       .  S
O370        C377   1.271       .  A
O371       Cu374   2.046       .  S
O371        C376   1.283       .  A
O372       Cu374   2.047       .  S
O372        C375   1.283       .  A
Cu373      Cu374   2.369       .  S
C375        C998   1.500       .  S
C376        C578   1.501       .  S
C377        C538   1.467       .  S
C378        C558   1.482       .  S
O379       Cu387   2.048       .  S
O379        C389   1.283       .  A
O380       Cu387   2.052       .  S
O380        C390   1.283       .  A
O381       Cu387   1.982       .  S
O381        C391   1.274       .  A
O382       Cu387   1.996       .  S
O382        C392   1.275       .  A
O383       Cu388   2.036       .  S
O383        C392   1.282       .  A
O384       Cu388   2.030       .  S
O384        C391   1.280       .  A
O385       Cu388   1.998       .  S
O385        C390   1.276       .  A
O386       Cu388   2.017       .  S
O386        C389   1.278       .  A
Cu387      Cu388   2.367       .  S
C389       C1649   1.500       .  S
C390        C569   1.493       .  S
C391        C489   1.472       .  S
C392        C518   1.495       .  S
O393       Cu401   1.982       .  S
O393        C403   1.270       .  A
O394       Cu401   1.977       .  S
O394        C404   1.271       .  A
O395       Cu401   2.064       .  S
O395        C405   1.286       .  A
O396       Cu401   2.057       .  S
O396        C406   1.285       .  A
O397       Cu402   1.979       .  S
O397        C406   1.272       .  A
O398       Cu402   1.954       .  S
O398        C405   1.268       .  A
O399       Cu402   2.065       .  S
O399        C404   1.287       .  A
O400       Cu402   2.069       .  S
O400        C403   1.286       .  A
Cu401      Cu402   2.363       .  S
C403       C1138   1.508       .  S
C404        C469   1.488       .  S
C405        C638   1.484       .  S
C406        C549   1.495   1_565  S
O407       Cu415   2.035       .  S
O407        C417   1.280       .  A
O408       Cu415   2.047       .  S
O408        C418   1.283       .  A
O409       Cu415   1.971       .  S
O409        C419   1.268       .  A
O410       Cu415   1.980       .  S
O410        C420   1.274       .  A
O411       Cu416   2.052       .  S
O411        C420   1.283       .  A
O412       Cu416   2.039   1_545  S
O412        C419   1.283   1_545  A
O413       Cu416   1.992       .  S
O413        C418   1.274       .  A
O414       Cu416   2.006   1_545  S
O414        C417   1.276   1_545  A
Cu415      Cu416   2.363       .  S
C417       C1438   1.480       .  S
C418        C478   1.493       .  S
C419        C498   1.505   1_565  S
C420        C618   1.485       .  S
O421       Cu429   1.992       .  S
O421        C431   1.275   1_455  A
O422       Cu429   1.986       .  S
O422        C432   1.274   1_455  A
O423       Cu429   2.044       .  S
O423        C433   1.282       .  A
O424       Cu429   2.036   1_655  S
O424        C434   1.281       .  A
O425       Cu430   1.973       .  S
O425        C434   1.272       .  A
O426       Cu430   1.973   1_455  S
O426        C433   1.273       .  A
O427       Cu430   2.042       .  S
O427        C432   1.282       .  A
O428       Cu430   2.042       .  S
O428        C431   1.281       .  A
Cu429      Cu430   2.367   1_455  S
C431        C458   1.502       .  S
C432        C938   1.481       .  S
C433        C649   1.487       .  S
C434        C529   1.475       .  S
O435       Cu443   2.053       .  S
O435        C445   1.284       .  A
O436       Cu443   2.053       .  S
O436        C446   1.284       .  A
O437       Cu443   1.975   1_455  S
O437        C447   1.272       .  A
O438       Cu443   1.997       .  S
O438        C448   1.274       .  A
O439       Cu444   2.048       .  S
O439        C448   1.283       .  A
O440       Cu444   2.038       .  S
O440        C447   1.283   1_655  A
O441       Cu444   1.990       .  S
O441        C446   1.274       .  A
O442       Cu444   2.010       .  S
O442        C445   1.276       .  A
Cu443      Cu444   2.370       .  S
C445       C1538   1.496       .  S
C446        C449   1.489       .  S
C447        C598   1.482       .  S
C448        C509   1.483       .  S
C449        C450   1.412       .  A
C449        C454   1.418       .  A
C450        C451   1.415       .  A
C450       Br462   1.926       .  S
C451        C452   1.412   1_554  A
C451       Br466   1.928   1_554  S
C452        C455   1.489       .  S
C452        C453   1.405   1_556  A
C453        C454   1.405       .  A
C453       Br461   1.935   1_654  S
C454       Br465   1.930   1_655  S
C455        C456   1.404   1_655  A
C455        C460   1.409       .  A
C456        C457   1.407       .  A
C456       Br467   1.933       .  S
C457        C458   1.422   1_455  A
C457       Br463   1.932       .  S
C458        C459   1.420       .  A
C459        C460   1.413       .  A
C459       Br468   1.931       .  S
C460       Br464   1.931       .  S
C469        C470   1.418       .  A
C469        C474   1.409       .  A
C470        C471   1.407       .  A
C470       Br482   1.931       .  S
C471        C472   1.406       .  A
C471       Br486   1.933       .  S
C472        C475   1.494   1_556  S
C472        C473   1.413       .  A
C473        C474   1.415       .  A
C473       Br481   1.926   1_565  S
C474       Br485   1.927   1_565  S
C475        C476   1.407       .  A
C475        C480   1.410       .  A
C476        C477   1.411       .  A
C476       Br487   1.929   1_554  S
C477        C478   1.417       .  A
C477       Br483   1.932       .  S
C478        C479   1.416       .  A
C479        C480   1.412       .  A
C479       Br488   1.927       .  S
C480       Br484   1.931       .  S
C489        C490   1.410       .  A
C489        C494   1.410       .  A
C490        C491   1.409       .  A
C490       Br502   1.929       .  S
C491        C492   1.409       .  A
C491       Br506   1.928       .  S
C492        C495   1.483       .  S
C492        C493   1.408       .  A
C493        C494   1.404       .  A
C493       Br501   1.932       .  S
C494       Br505   1.931       .  S
C495        C496   1.405       .  A
C495        C500   1.399   1_545  A
C496        C497   1.410       .  A
C496       Br507   1.933       .  S
C497        C498   1.425       .  A
C497       Br503   1.935       .  S
C498        C499   1.434   1_545  A
C499        C500   1.407       .  A
C499       Br508   1.940       .  S
C500       Br504   1.936       .  S
C509        C510   1.411       .  A
C509        C514   1.411       .  A
C510        C511   1.411       .  A
C510       Br522   1.927       .  S
C511        C512   1.411       .  A
C511       Br526   1.930       .  S
C512        C515   1.493       .  S
C512        C513   1.409       .  A
C513        C514   1.410       .  A
C513       Br521   1.929       .  S
C514       Br525   1.925       .  S
C515        C516   1.407       .  A
C515        C520   1.411       .  A
C516        C517   1.410       .  A
C516       Br527   1.932       .  S
C517        C518   1.422       .  A
C517       Br523   1.935       .  S
C518        C519   1.415       .  A
C519        C520   1.412       .  A
C519       Br528   1.931       .  S
C520       Br524   1.931       .  S
C529        C530   1.412       .  A
C529        C534   1.409       .  A
C530        C531   1.401       .  A
C530       Br542   1.921       .  S
C531        C532   1.403       .  A
C531       Br546   1.933       .  S
C532        C535   1.478       .  S
C532        C533   1.411       .  A
C533        C534   1.409       .  A
C533       Br541   1.929       .  S
C534       Br545   1.929       .  S
C535        C536   1.406       .  A
C535        C540   1.410       .  A
C536        C537   1.401       .  A
C536       Br547   1.931       .  S
C537        C538   1.410       .  A
C537       Br543   1.931       .  S
C538        C539   1.408       .  A
C539        C540   1.408       .  A
C539       Br548   1.929       .  S
C540       Br544   1.929       .  S
C549        C550   1.416       .  A
C549        C554   1.419       .  A
C550        C551   1.414       .  A
C550       Br562   1.930   1_545  S
C551        C552   1.413       .  A
C551       Br566   1.931       .  S
C552        C555   1.495       .  S
C552        C553   1.408       .  A
C553        C554   1.407       .  A
C553       Br561   1.935       .  S
C554       Br565   1.931       .  S
C555        C556   1.414       .  A
C555        C560   1.412       .  A
C556        C557   1.413       .  A
C556       Br567   1.930       .  S
C557        C558   1.411       .  A
C557       Br563   1.929       .  S
C558        C559   1.412       .  A
C559        C560   1.406       .  A
C559       Br568   1.933       .  S
C560       Br564   1.932       .  S
C569        C570   1.414       .  A
C569        C574   1.416       .  A
C570        C571   1.416       .  A
C570       Br582   1.930       .  S
C571        C572   1.413       .  A
C571       Br586   1.929       .  S
C572        C575   1.500   1_554  S
C572        C573   1.409       .  A
C573        C574   1.411       .  A
C573       Br581   1.930   1_554  S
C574       Br585   1.933       .  S
C575        C576   1.410       .  A
C575        C580   1.409       .  A
C576        C577   1.414       .  A
C576       Br587   1.930       .  S
C577        C578   1.416       .  A
C577       Br583   1.929       .  S
C578        C579   1.422       .  A
C579        C580   1.414       .  A
C579       Br588   1.935       .  S
C580       Br584   1.932       .  S
C589        C590   1.408       .  A
C589        C594   1.410       .  A
C590        C591   1.402       .  A
C590       Br602   1.928       .  S
C591        C592   1.409       .  A
C591       Br606   1.932       .  S
C592        C595   1.483       .  S
C592        C593   1.410       .  A
C593        C594   1.410       .  A
C593       Br601   1.928       .  S
C594       Br605   1.928       .  S
C595        C596   1.405       .  A
C595        C600   1.411       .  A
C596        C597   1.407       .  A
C596       Br607   1.931       .  S
C597        C598   1.420       .  A
C597       Br603   1.934       .  S
C598        C599   1.409       .  A
C599        C600   1.407       .  A
C599       Br608   1.929       .  S
C600       Br604   1.930       .  S
C609        C610   1.409       .  A
C609        C614   1.415       .  A
C610        C611   1.411       .  A
C610       Br622   1.928       .  S
C611        C612   1.411       .  A
C611       Br626   1.927       .  S
C612        C615   1.488       .  S
C612        C613   1.407       .  A
C613        C614   1.408       .  A
C613       Br621   1.931       .  S
C614       Br625   1.931       .  S
C615        C616   1.411       .  A
C615        C620   1.407       .  A
C616        C617   1.415       .  A
C616       Br627   1.928       .  S
C617        C618   1.413       .  A
C617       Br623   1.925       .  S
C618        C619   1.414       .  A
C619        C620   1.403       .  A
C619       Br628   1.934       .  S
C620       Br624   1.933       .  S
C629        C630   1.408       .  A
C629        C634   1.414       .  A
C630        C631   1.407       .  A
C630       Br642   1.928       .  S
C631        C632   1.410       .  A
C631       Br646   1.929       .  S
C632        C635   1.482       .  S
C632        C633   1.406       .  A
C633        C634   1.406       .  A
C633       Br641   1.931       .  S
C634       Br645   1.930       .  S
C635        C636   1.410       .  A
C635        C640   1.403       .  A
C636        C637   1.409       .  A
C636       Br647   1.930       .  S
C637        C638   1.409       .  A
C637       Br643   1.918       .  S
C638        C639   1.420       .  A
C639        C640   1.404       .  A
C639       Br648   1.935       .  S
C640       Br644   1.932       .  S
C649        C650   1.413       .  A
C649        C654   1.416       .  A
C650        C651   1.411       .  A
C650       Br662   1.926       .  S
C651        C652   1.411       .  A
C651       Br666   1.930       .  S
C652        C655   1.487       .  S
C652        C653   1.407       .  A
C653        C654   1.405       .  A
C653       Br661   1.931       .  S
C654       Br665   1.934       .  S
C655        C656   1.411       .  A
C655        C660   1.408       .  A
C656        C657   1.409       .  A
C656       Br667   1.932       .  S
C657        C658   1.413       .  A
C657       Br663   1.929       .  S
C658        C659   1.415       .  A
C659        C660   1.407       .  A
C659       Br668   1.932       .  S
C660       Br664   1.931       .  S
C669        C670   1.412       .  A
C669        C674   1.422       .  A
C670        C671   1.414       .  A
C670       Br682   1.927       .  S
C671        C672   1.411       .  A
C671       Br686   1.928       .  S
C672        C675   1.487   1_556  S
C672        C673   1.403       .  A
C673        C674   1.404       .  A
C673       Br681   1.933       .  S
C674       Br685   1.936       .  S
C675        C676   1.409       .  A
C675        C680   1.407       .  A
C676        C677   1.412       .  A
C676       Br687   1.929       .  S
C677        C678   1.417       .  A
C677       Br683   1.932       .  S
C678        C679   1.416       .  A
C679        C680   1.406       .  A
C679       Br688   1.932       .  S
C680       Br684   1.933   1_554  S
C689        C690   1.421       .  A
C689        C694   1.420       .  A
C690        C691   1.417       .  A
C690       Br702   1.931       .  S
C691        C692   1.410       .  A
C691       Br706   1.931       .  S
C692        C695   1.497       .  S
C692        C693   1.406       .  A
C693        C694   1.411       .  A
C693       Br701   1.931       .  S
C694       Br705   1.933       .  S
C695        C696   1.413       .  A
C695        C700   1.408       .  A
C696        C697   1.416       .  A
C696       Br707   1.926       .  S
C697        C698   1.411       .  A
C697       Br703   1.927       .  S
C698        C699   1.417       .  A
C699        C700   1.408       .  A
C699       Br708   1.932       .  S
C700       Br704   1.932       .  S
C709        C710   1.409       .  A
C709        C714   1.416       .  A
C710        C711   1.411       .  A
C710       Br722   1.929       .  S
C711        C712   1.412       .  A
C711       Br726   1.928       .  S
C712        C715   1.492       .  S
C712        C713   1.409       .  A
C713        C714   1.410       .  A
C713       Br721   1.931       .  S
C714       Br725   1.932       .  S
C715        C716   1.413       .  A
C715        C720   1.407       .  A
C716        C717   1.415       .  A
C716       Br727   1.928       .  S
C717        C718   1.411       .  A
C717       Br723   1.927       .  S
C718        C719   1.413       .  A
C719        C720   1.405       .  A
C719       Br728   1.930       .  S
C720       Br724   1.932       .  S
C729        C730   1.410       .  A
C729        C734   1.405       .  A
C730        C731   1.400       .  A
C730       Br742   1.930       .  S
C731        C732   1.405       .  A
C731       Br746   1.930       .  S
C732        C735   1.471       .  S
C732        C733   1.409       .  A
C733        C734   1.403       .  A
C733       Br741   1.929       .  S
C734       Br745   1.929       .  S
C735        C736   1.399       .  A
C735        C740   1.409       .  A
C736        C737   1.398       .  A
C736       Br747   1.934       .  S
C737        C738   1.420       .  A
C737       Br743   1.934       .  S
C738        C739   1.411       .  A
C739        C740   1.409       .  A
C739       Br748   1.923       .  S
C740       Br744   1.931       .  S
C749        C750   1.416       .  A
C749        C754   1.415       .  A
C750        C751   1.408       .  A
C750       Br762   1.934       .  S
C751        C752   1.408       .  A
C751       Br766   1.932       .  S
C752        C755   1.491       .  S
C752        C753   1.410       .  A
C753        C754   1.412       .  A
C753       Br761   1.928       .  S
C754       Br765   1.931       .  S
C755        C756   1.406       .  A
C755        C760   1.410       .  A
C756        C757   1.408       .  A
C756       Br767   1.933       .  S
C757        C758   1.420       .  A
C757       Br763   1.934       .  S
C758        C759   1.416       .  A
C759        C760   1.413       .  A
C759       Br768   1.931       .  S
C760       Br764   1.929       .  S
C769        C770   1.430       .  A
C769        C774   1.423   1_565  A
C770        C771   1.407       .  A
C770       Br782   1.938       .  S
C771        C772   1.401   1_565  A
C771       Br786   1.937       .  S
C772        C775   1.484       .  S
C772        C773   1.406       .  A
C773        C774   1.412       .  A
C773       Br781   1.932       .  S
C774       Br785   1.933       .  S
C775        C776   1.409       .  A
C775        C780   1.410       .  A
C776        C777   1.404       .  A
C776       Br787   1.931       .  S
C777        C778   1.410       .  A
C777       Br783   1.932       .  S
C778        C779   1.409       .  A
C779        C780   1.409       .  A
C779       Br788   1.929       .  S
C780       Br784   1.928       .  S
C789        C790   1.410       .  A
C789        C794   1.412       .  A
C790        C791   1.409       .  A
C790       Br802   1.929   1_545  S
C791        C792   1.411       .  A
C791       Br806   1.931       .  S
C792        C795   1.480       .  S
C792        C793   1.406       .  A
C793        C794   1.403       .  A
C793       Br801   1.932       .  S
C794       Br805   1.932       .  S
C795        C796   1.409       .  A
C795        C800   1.406       .  A
C796        C797   1.408       .  A
C796       Br807   1.929       .  S
C797        C798   1.414       .  A
C797       Br803   1.933       .  S
C798        C799   1.417       .  A
C799        C800   1.402       .  A
C799       Br808   1.936       .  S
C800       Br804   1.933       .  S
C809        C810   1.411       .  A
C809        C814   1.419       .  A
C810        C811   1.412       .  A
C810       Br822   1.930   1_565  S
C811        C812   1.413       .  A
C811       Br826   1.928       .  S
C812        C815   1.489       .  S
C812        C813   1.406       .  A
C813        C814   1.405       .  A
C813       Br821   1.933       .  S
C814       Br825   1.935       .  S
C815        C816   1.411   1_655  A
C815        C820   1.408       .  A
C816        C817   1.412       .  A
C816       Br827   1.930       .  S
C817        C818   1.410   1_455  A
C817       Br823   1.923       .  S
C818        C819   1.413       .  A
C819        C820   1.407       .  A
C819       Br828   1.931       .  S
C820       Br824   1.931       .  S
C829        C830   1.411       .  A
C829        C834   1.410       .  A
C830        C831   1.398       .  A
C830       Br842   1.922       .  S
C831        C832   1.402       .  A
C831       Br846   1.933       .  S
C832        C835   1.474       .  S
C832        C833   1.411       .  A
C833        C834   1.410       .  A
C833       Br841   1.929       .  S
C834       Br845   1.929       .  S
C835        C836   1.405       .  A
C835        C840   1.410       .  A
C836        C837   1.399       .  A
C836       Br847   1.933       .  S
C837        C838   1.413       .  A
C837       Br843   1.934       .  S
C838        C839   1.407       .  A
C839        C840   1.407       .  A
C839       Br848   1.929       .  S
C840       Br844   1.927       .  S
C849        C850   1.419       .  A
C849        C854   1.418       .  A
C850        C851   1.404       .  A
C850       Br862   1.936       .  S
C851        C852   1.406       .  A
C851       Br866   1.933       .  S
C852        C855   1.489       .  S
C852        C853   1.411       .  A
C853        C854   1.413       .  A
C853       Br861   1.932       .  S
C854       Br865   1.927       .  S
C855        C856   1.408       .  A
C855        C860   1.411       .  A
C856        C857   1.406       .  A
C856       Br867   1.935       .  S
C857        C858   1.416       .  A
C857       Br863   1.929       .  S
C858        C859   1.415       .  A
C859        C860   1.412       .  A
C859       Br868   1.930       .  S
C860       Br864   1.930       .  S
C869        C870   1.409       .  A
C869        C874   1.420       .  A
C870        C871   1.407       .  A
C870       Br882   1.924       .  S
C871        C872   1.410       .  A
C871       Br886   1.931       .  S
C872        C875   1.474       .  S
C872        C873   1.401       .  A
C873        C874   1.402       .  A
C873       Br881   1.933       .  S
C874       Br885   1.934       .  S
C875        C876   1.408       .  A
C875        C880   1.408       .  A
C876        C877   1.405       .  A
C876       Br887   1.928       .  S
C877        C878   1.407       .  A
C877       Br883   1.927       .  S
C878        C879   1.407       .  A
C879        C880   1.399       .  A
C879       Br888   1.925       .  S
C880       Br884   1.932       .  S
C889        C890   1.408       .  A
C889        C894   1.406       .  A
C890        C891   1.409       .  A
C890       Br902   1.928       .  S
C891        C892   1.412       .  A
C891       Br906   1.930       .  S
C892        C895   1.490       .  S
C892        C893   1.411       .  A
C893        C894   1.408       .  A
C893       Br901   1.927       .  S
C894       Br905   1.928       .  S
C895        C896   1.403       .  A
C895        C900   1.410       .  A
C896        C897   1.408       .  A
C896       Br907   1.936       .  S
C897        C898   1.427       .  A
C897       Br903   1.936       .  S
C898        C899   1.418       .  A
C899        C900   1.414       .  A
C899       Br908   1.929       .  S
C900       Br904   1.931       .  S
C909        C910   1.418       .  A
C909        C914   1.412       .  A
C910        C911   1.404       .  A
C910       Br922   1.933       .  S
C911        C912   1.405       .  A
C911       Br926   1.934       .  S
C912        C915   1.488       .  S
C912        C913   1.411       .  A
C913        C914   1.413       .  A
C913       Br921   1.928       .  S
C914       Br925   1.926       .  S
C915        C916   1.409       .  A
C915        C920   1.402       .  A
C916        C917   1.415       .  A
C916       Br927   1.932       .  S
C917        C918   1.422       .  A
C917       Br923   1.931       .  S
C918        C919   1.423       .  A
C919        C920   1.406       .  A
C919       Br928   1.932       .  S
C920       Br924   1.933       .  S
C929        C930   1.427       .  A
C929        C934   1.418       .  A
C930        C931   1.409       .  A
C930       Br942   1.938   1_655  S
C931        C932   1.404       .  A
C931       Br946   1.935   1_655  S
C932        C935   1.492       .  S
C932        C933   1.409       .  A
C933        C934   1.414       .  A
C933       Br941   1.930       .  S
C934       Br945   1.930       .  S
C935        C936   1.409   1_655  A
C935        C940   1.412       .  A
C936        C937   1.407       .  A
C936       Br947   1.930       .  S
C937        C938   1.412   1_455  A
C937       Br943   1.932       .  S
C938        C939   1.412       .  A
C939        C940   1.413       .  A
C939       Br948   1.930       .  S
C940       Br944   1.928       .  S
C949        C950   1.422       .  A
C949        C954   1.435       .  A
C950        C951   1.418       .  A
C950       Br962   1.932       .  S
C951        C952   1.410       .  A
C951       Br966   1.930   1_655  S
C952        C955   1.500       .  S
C952        C953   1.403       .  A
C953        C954   1.412       .  A
C953       Br961   1.937   1_545  S
C954       Br965   1.942   1_545  S
C955        C956   1.410   1_545  A
C955        C960   1.411   1_645  A
C956        C957   1.412       .  A
C956       Br967   1.932   1_565  S
C957        C958   1.417       .  A
C957       Br963   1.929       .  S
C958        C959   1.416   1_655  A
C959        C960   1.415       .  A
C959       Br968   1.930       .  S
C960       Br964   1.928       .  S
C969        C970   1.420   1_655  A
C969        C974   1.417       .  A
C970        C971   1.408       .  A
C970       Br982   1.935       .  S
C971        C972   1.406   1_455  A
C971       Br986   1.932       .  S
C972        C975   1.489       .  S
C972        C973   1.409       .  A
C973        C974   1.412       .  A
C973       Br981   1.930       .  S
C974       Br985   1.932       .  S
C975        C976   1.411       .  A
C975        C980   1.406       .  A
C976        C977   1.413       .  A
C976       Br987   1.928       .  S
C977        C978   1.412       .  A
C977       Br983   1.928       .  S
C978        C979   1.420       .  A
C979        C980   1.406       .  A
C979       Br988   1.936       .  S
C980       Br984   1.934       .  S
C989        C990   1.424       .  A
C989        C994   1.432       .  A
C990        C991   1.418       .  A
C990      Br1002   1.931       .  S
C991        C992   1.409       .  A
C991      Br1006   1.930       .  S
C992        C995   1.502       .  S
C992        C993   1.405       .  A
C993        C994   1.414       .  A
C993      Br1001   1.935       .  S
C994      Br1005   1.937       .  S
C995        C996   1.411       .  A
C995       C1000   1.410       .  A
C996        C997   1.416       .  A
C996      Br1007   1.929       .  S
C997        C998   1.418       .  A
C997      Br1003   1.931       .  S
C998        C999   1.416       .  A
C999       C1000   1.413       .  A
C999      Br1008   1.931       .  S
C1000     Br1004   1.931       .  S
C1009      C1010   1.407       .  A
C1009      C1014   1.409       .  A
C1010      C1011   1.406       .  A
C1010     Br1022   1.924       .  S
C1011      C1012   1.409       .  A
C1011     Br1026   1.930       .  S
C1012      C1015   1.484       .  S
C1012      C1013   1.410       .  A
C1013      C1014   1.407       .  A
C1013     Br1021   1.932       .  S
C1014     Br1025   1.924       .  S
C1015      C1016   1.405       .  A
C1015      C1020   1.413       .  A
C1016      C1017   1.402       .  A
C1016     Br1027   1.933       .  S
C1017      C1018   1.410       .  A
C1017     Br1023   1.919       .  S
C1018      C1019   1.408       .  A
C1019      C1020   1.411       .  A
C1019     Br1028   1.922       .  S
C1020     Br1024   1.929       .  S
C1029      C1030   1.427       .  A
C1029      C1034   1.423       .  A
C1030      C1031   1.410       .  A
C1030     Br1042   1.934       .  S
C1031      C1032   1.403       .  A
C1031     Br1046   1.935       .  S
C1032      C1035   1.498       .  S
C1032      C1033   1.410       .  A
C1033      C1034   1.419       .  A
C1033     Br1041   1.930       .  S
C1034     Br1045   1.931       .  S
C1035      C1036   1.411       .  A
C1035      C1040   1.411       .  A
C1036      C1037   1.414       .  A
C1036     Br1047   1.928       .  S
C1037      C1038   1.415       .  A
C1037     Br1043   1.930       .  S
C1038      C1039   1.412       .  A
C1039      C1040   1.410       .  A
C1039     Br1048   1.930       .  S
C1040     Br1044   1.929       .  S
C1049      C1050   1.421       .  A
C1049      C1054   1.416       .  A
C1050      C1051   1.407       .  A
C1050     Br1062   1.935       .  S
C1051      C1052   1.405       .  A
C1051     Br1066   1.932       .  S
C1052      C1055   1.490       .  S
C1052      C1053   1.410       .  A
C1053      C1054   1.412       .  A
C1053     Br1061   1.930       .  S
C1054     Br1065   1.930       .  S
C1055      C1056   1.410       .  A
C1055      C1060   1.407       .  A
C1056      C1057   1.412       .  A
C1056     Br1067   1.930       .  S
C1057      C1058   1.415       .  A
C1057     Br1063   1.930       .  S
C1058      C1059   1.417       .  A
C1059      C1060   1.408       .  A
C1059     Br1068   1.933       .  S
C1060     Br1064   1.932       .  S
C1069      C1070   1.416       .  A
C1069      C1074   1.409       .  A
C1070      C1071   1.408       .  A
C1070     Br1082   1.931       .  S
C1071      C1072   1.407       .  A
C1071     Br1086   1.932       .  S
C1072      C1075   1.494       .  S
C1072      C1073   1.414       .  A
C1073      C1074   1.414       .  A
C1073     Br1081   1.927       .  S
C1074     Br1085   1.928       .  S
C1075      C1076   1.410       .  A
C1075      C1080   1.405       .  A
C1076      C1077   1.416       .  A
C1076     Br1087   1.930       .  S
C1077      C1078   1.422       .  A
C1077     Br1083   1.932       .  S
C1078      C1079   1.422       .  A
C1079      C1080   1.409       .  A
C1079     Br1088   1.932       .  S
C1080     Br1084   1.934       .  S
C1089      C1090   1.415       .  A
C1089      C1094   1.416       .  A
C1090      C1091   1.411       .  A
C1090     Br1102   1.930       .  S
C1091      C1092   1.409       .  A
C1091     Br1106   1.929       .  S
C1092      C1095   1.503       .  S
C1092      C1093   1.413       .  A
C1093      C1094   1.418       .  A
C1093     Br1101   1.929       .  S
C1094     Br1105   1.929       .  S
C1095      C1096   1.411       .  A
C1095      C1100   1.407       .  A
C1096      C1097   1.418       .  A
C1096     Br1107   1.930       .  S
C1097      C1098   1.419       .  A
C1097     Br1103   1.929       .  S
C1098      C1099   1.427       .  A
C1099      C1100   1.414       .  A
C1099     Br1108   1.936       .  S
C1100     Br1104   1.933       .  S
C1109      C1110   1.406       .  A
C1109      C1114   1.407       .  A
C1110      C1111   1.406       .  A
C1110     Br1122   1.928       .  S
C1111      C1112   1.411       .  A
C1111     Br1126   1.928       .  S
C1112      C1115   1.476       .  S
C1112      C1113   1.408       .  A
C1113      C1114   1.401       .  A
C1113     Br1121   1.932       .  S
C1114     Br1125   1.927       .  S
C1115      C1116   1.405       .  A
C1115      C1120   1.410       .  A
C1116      C1117   1.400       .  A
C1116     Br1127   1.933       .  S
C1117      C1118   1.415       .  A
C1117     Br1123   1.935       .  S
C1118      C1119   1.411       .  A
C1119      C1120   1.408       .  A
C1119     Br1128   1.930       .  S
C1120     Br1124   1.929       .  S
C1129      C1130   1.414       .  A
C1129      C1134   1.416       .  A
C1130      C1131   1.413       .  A
C1130     Br1142   1.930       .  S
C1131      C1132   1.410       .  A
C1131     Br1146   1.928       .  S
C1132      C1135   1.491       .  S
C1132      C1133   1.408       .  A
C1133      C1134   1.407       .  A
C1133     Br1141   1.931       .  S
C1134     Br1145   1.934       .  S
C1135      C1136   1.409       .  A
C1135      C1140   1.401       .  A
C1136      C1137   1.416       .  A
C1136     Br1147   1.930       .  S
C1137      C1138   1.420       .  A
C1137     Br1143   1.926       .  S
C1138      C1139   1.430       .  A
C1139      C1140   1.408       .  A
C1139     Br1148   1.933       .  S
C1140     Br1144   1.937       .  S
C1149      C1150   1.412       .  A
C1149      C1154   1.418       .  A
C1150      C1151   1.412       .  A
C1150     Br1162   1.928       .  S
C1151      C1152   1.412       .  A
C1151     Br1166   1.928       .  S
C1152      C1155   1.492       .  S
C1152      C1153   1.407       .  A
C1153      C1154   1.409       .  A
C1153     Br1161   1.931       .  S
C1154     Br1165   1.933       .  S
C1155      C1156   1.408       .  A
C1155      C1160   1.405       .  A
C1156      C1157   1.413       .  A
C1156     Br1167   1.932       .  S
C1157      C1158   1.420       .  A
C1157     Br1163   1.929       .  S
C1158      C1159   1.424       .  A
C1159      C1160   1.411       .  A
C1159     Br1168   1.934       .  S
C1160     Br1164   1.932       .  S
C1169      C1170   1.418       .  A
C1169      C1174   1.410       .  A
C1170      C1171   1.407       .  A
C1170     Br1182   1.934       .  S
C1171      C1172   1.407       .  A
C1171     Br1186   1.932       .  S
C1172      C1175   1.493       .  S
C1172      C1173   1.413       .  A
C1173      C1174   1.414       .  A
C1173     Br1181   1.928       .  S
C1174     Br1185   1.928       .  S
C1175      C1176   1.405       .  A
C1175      C1180   1.410       .  A
C1176      C1177   1.407       .  A
C1176     Br1187   1.934       .  S
C1177      C1178   1.423       .  A
C1177     Br1183   1.936       .  S
C1178      C1179   1.421       .  A
C1179      C1180   1.416       .  A
C1179     Br1188   1.931       .  S
C1180     Br1184   1.930       .  S
C1189      C1190   1.414       .  A
C1189      C1194   1.415       .  A
C1190      C1191   1.412       .  A
C1190     Br1202   1.930   1_545  S
C1191      C1192   1.411       .  A
C1191     Br1206   1.930       .  S
C1192      C1195   1.494       .  S
C1192      C1193   1.409       .  A
C1193      C1194   1.409       .  A
C1193     Br1201   1.930       .  S
C1194     Br1205   1.930       .  S
C1195      C1196   1.406       .  A
C1195      C1200   1.413       .  A
C1196      C1197   1.409       .  A
C1196     Br1207   1.933       .  S
C1197      C1198   1.422       .  A
C1197     Br1203   1.936       .  S
C1198      C1199   1.413       .  A
C1199      C1200   1.414       .  A
C1199     Br1208   1.928       .  S
C1200     Br1204   1.929       .  S
C1209      C1210   1.414   1_545  A
C1209      C1214   1.408       .  A
C1210      C1211   1.403       .  A
C1210     Br1222   1.932       .  S
C1211      C1212   1.405   1_565  A
C1211     Br1226   1.931       .  S
C1212      C1215   1.479       .  S
C1212      C1213   1.411       .  A
C1213      C1214   1.408       .  A
C1213     Br1221   1.929       .  S
C1214     Br1225   1.929       .  S
C1215      C1216   1.409       .  A
C1215      C1220   1.405       .  A
C1216      C1217   1.409       .  A
C1216     Br1227   1.929   1_545  S
C1217      C1218   1.410       .  A
C1217     Br1223   1.926       .  S
C1218      C1219   1.414       .  A
C1219      C1220   1.403       .  A
C1219     Br1228   1.931       .  S
C1220     Br1224   1.933       .  S
C1229      C1230   1.424       .  A
C1229      C1234   1.418       .  A
C1230      C1231   1.405       .  A
C1230     Br1242   1.938       .  S
C1231      C1232   1.403       .  A
C1231     Br1246   1.933       .  S
C1232      C1235   1.481       .  S
C1232      C1233   1.407       .  A
C1233      C1234   1.408       .  A
C1233     Br1241   1.932       .  S
C1234     Br1245   1.932       .  S
C1235      C1236   1.409       .  A
C1235      C1240   1.408       .  A
C1236      C1237   1.407       .  A
C1236     Br1247   1.930       .  S
C1237      C1238   1.410       .  A
C1237     Br1243   1.929       .  S
C1238      C1239   1.410       .  A
C1239      C1240   1.405       .  A
C1239     Br1248   1.928       .  S
C1240     Br1244   1.931       .  S
C1249      C1250   1.425       .  A
C1249      C1254   1.436       .  A
C1250      C1251   1.418       .  A
C1250     Br1262   1.932       .  S
C1251      C1252   1.408       .  A
C1251     Br1266   1.930       .  S
C1252      C1255   1.496       .  S
C1252      C1253   1.402       .  A
C1253      C1254   1.409       .  A
C1253     Br1261   1.939       .  S
C1254     Br1265   1.943       .  S
C1255      C1256   1.408       .  A
C1255      C1260   1.406       .  A
C1256      C1257   1.415       .  A
C1256     Br1267   1.931       .  S
C1257      C1258   1.424       .  A
C1257     Br1263   1.933       .  S
C1258      C1259   1.425       .  A
C1259      C1260   1.411       .  A
C1259     Br1268   1.934       .  S
C1260     Br1264   1.934       .  S
C1269      C1270   1.411       .  A
C1269      C1274   1.414       .  A
C1270      C1271   1.412       .  A
C1270     Br1282   1.929       .  S
C1271      C1272   1.413       .  A
C1271     Br1286   1.928       .  S
C1272      C1275   1.486       .  S
C1272      C1273   1.407       .  A
C1273      C1274   1.402       .  A
C1273     Br1281   1.934       .  S
C1274     Br1285   1.934       .  S
C1275      C1276   1.413       .  A
C1275      C1280   1.410       .  A
C1276      C1277   1.408       .  A
C1276     Br1287   1.930       .  S
C1277      C1278   1.406       .  A
C1277     Br1283   1.927       .  S
C1278      C1279   1.406       .  A
C1279      C1280   1.405       .  A
C1279     Br1288   1.925       .  S
C1280     Br1284   1.930       .  S
C1289      C1290   1.420       .  A
C1289      C1294   1.414       .  A
C1290      C1291   1.411       .  A
C1290     Br1302   1.933       .  S
C1291      C1292   1.407       .  A
C1291     Br1306   1.931   1_545  S
C1292      C1295   1.498       .  S
C1292      C1293   1.413       .  A
C1293      C1294   1.416       .  A
C1293     Br1301   1.929       .  S
C1294     Br1305   1.928       .  S
C1295      C1296   1.414   1_545  A
C1295      C1300   1.409       .  A
C1296      C1297   1.415       .  A
C1296     Br1307   1.926       .  S
C1297      C1298   1.409       .  A
C1297     Br1303   1.926       .  S
C1298      C1299   1.413       .  A
C1299      C1300   1.409   1_565  A
C1299     Br1308   1.930       .  S
C1300     Br1304   1.930       .  S
C1309      C1310   1.420       .  A
C1309      C1314   1.423       .  A
C1310      C1311   1.413       .  A
C1310     Br1322   1.933       .  S
C1311      C1312   1.408       .  A
C1311     Br1326   1.931       .  S
C1312      C1315   1.491       .  S
C1312      C1313   1.405       .  A
C1313      C1314   1.409       .  A
C1313     Br1321   1.933       .  S
C1314     Br1325   1.936       .  S
C1315      C1316   1.406       .  A
C1315      C1320   1.411       .  A
C1316      C1317   1.407       .  A
C1316     Br1327   1.932   1_565  S
C1317      C1318   1.420       .  A
C1317     Br1323   1.936   1_565  S
C1318      C1319   1.413       .  A
C1319      C1320   1.413       .  A
C1319     Br1328   1.929       .  S
C1320     Br1324   1.929       .  S
C1329      C1330   1.413       .  A
C1329      C1334   1.420       .  A
C1330      C1331   1.417       .  A
C1330     Br1342   1.928       .  S
C1331      C1332   1.415       .  A
C1331     Br1346   1.929       .  S
C1332      C1335   1.501       .  S
C1332      C1333   1.409       .  A
C1333      C1334   1.410       .  A
C1333     Br1341   1.934       .  S
C1334     Br1345   1.934       .  S
C1335      C1336   1.413       .  A
C1335      C1340   1.412       .  A
C1336      C1337   1.414       .  A
C1336     Br1347   1.930       .  S
C1337      C1338   1.414       .  A
C1337     Br1343   1.930       .  S
C1338      C1339   1.414       .  A
C1339      C1340   1.412       .  A
C1339     Br1348   1.933       .  S
C1340     Br1344   1.930       .  S
C1349      C1350   1.421       .  A
C1349      C1354   1.415       .  A
C1350      C1351   1.412       .  A
C1350     Br1362   1.934       .  S
C1351      C1352   1.407       .  A
C1351     Br1366   1.931       .  S
C1352      C1355   1.499       .  S
C1352      C1353   1.412       .  A
C1353      C1354   1.416       .  A
C1353     Br1361   1.929       .  S
C1354     Br1365   1.930       .  S
C1355      C1356   1.411       .  A
C1355      C1360   1.411       .  A
C1356      C1357   1.415       .  A
C1356     Br1367   1.928       .  S
C1357      C1358   1.413       .  A
C1357     Br1363   1.929       .  S
C1358      C1359   1.413       .  A
C1359      C1360   1.411       .  A
C1359     Br1368   1.931       .  S
C1360     Br1364   1.929       .  S
C1369      C1370   1.417       .  A
C1369      C1374   1.417       .  A
C1370      C1371   1.416       .  A
C1370     Br1382   1.930       .  S
C1371      C1372   1.411       .  A
C1371     Br1386   1.929       .  S
C1372      C1375   1.497       .  S
C1372      C1373   1.409       .  A
C1373      C1374   1.410       .  A
C1373     Br1381   1.932       .  S
C1374     Br1385   1.933       .  S
C1375      C1376   1.406       .  A
C1375      C1380   1.414       .  A
C1376      C1377   1.408       .  A
C1376     Br1387   1.933       .  S
C1377      C1378   1.418       .  A
C1377     Br1383   1.931       .  S
C1378      C1379   1.412       .  A
C1379      C1380   1.418       .  A
C1379     Br1388   1.927       .  S
C1380     Br1384   1.927       .  S
C1389      C1390   1.429       .  A
C1389      C1394   1.421       .  A
C1390      C1391   1.410       .  A
C1390     Br1402   1.933       .  S
C1391      C1392   1.402       .  A
C1391     Br1406   1.935       .  S
C1392      C1395   1.491       .  S
C1392      C1393   1.408       .  A
C1393      C1394   1.415       .  A
C1393     Br1401   1.932       .  S
C1394     Br1405   1.927       .  S
C1395      C1396   1.409       .  A
C1395      C1400   1.410       .  A
C1396      C1397   1.407       .  A
C1396     Br1407   1.930       .  S
C1397      C1398   1.412       .  A
C1397     Br1403   1.931       .  S
C1398      C1399   1.412       .  A
C1399      C1400   1.411       .  A
C1399     Br1408   1.931       .  S
C1400     Br1404   1.928       .  S
C1409      C1410   1.419       .  A
C1409      C1414   1.414       .  A
C1410      C1411   1.403       .  A
C1410     Br1422   1.937       .  S
C1411      C1412   1.405       .  A
C1411     Br1426   1.933       .  S
C1412      C1415   1.486       .  S
C1412      C1413   1.412       .  A
C1413      C1414   1.411       .  A
C1413     Br1421   1.932       .  S
C1414     Br1425   1.929       .  S
C1415      C1416   1.411       .  A
C1415      C1420   1.411       .  A
C1416      C1417   1.407       .  A
C1416     Br1427   1.931       .  S
C1417      C1418   1.409       .  A
C1417     Br1423   1.929       .  S
C1418      C1419   1.410       .  A
C1419      C1420   1.405       .  A
C1419     Br1428   1.931       .  S
C1420     Br1424   1.932       .  S
C1429      C1430   1.411       .  A
C1429      C1434   1.419       .  A
C1430      C1431   1.410       .  A
C1430     Br1442   1.930       .  S
C1431      C1432   1.412       .  A
C1431     Br1446   1.930       .  S
C1432      C1435   1.491       .  S
C1432      C1433   1.407       .  A
C1433      C1434   1.410       .  A
C1433     Br1441   1.932   1_545  S
C1434     Br1445   1.933       .  S
C1435      C1436   1.412       .  A
C1435      C1440   1.410       .  A
C1436      C1437   1.411   1_545  A
C1436     Br1447   1.929   1_545  S
C1437      C1438   1.408       .  A
C1437     Br1443   1.924       .  S
C1438      C1439   1.410   1_565  A
C1439      C1440   1.408       .  A
C1439     Br1448   1.928       .  S
C1440     Br1444   1.931       .  S
C1449      C1450   1.412       .  A
C1449      C1454   1.417       .  A
C1450      C1451   1.413       .  A
C1450     Br1462   1.928       .  S
C1451      C1452   1.411       .  A
C1451     Br1466   1.929       .  S
C1452      C1455   1.491       .  S
C1452      C1453   1.407       .  A
C1453      C1454   1.408       .  A
C1453     Br1461   1.931       .  S
C1454     Br1465   1.932       .  S
C1455      C1456   1.403       .  A
C1455      C1460   1.408       .  A
C1456      C1457   1.409       .  A
C1456     Br1467   1.933       .  S
C1457      C1458   1.429       .  A
C1457     Br1463   1.937       .  S
C1458      C1459   1.423       .  A
C1459      C1460   1.414       .  A
C1459     Br1468   1.933       .  S
C1460     Br1464   1.932       .  S
C1469      C1470   1.417       .  A
C1469      C1474   1.412       .  A
C1470      C1471   1.408       .  A
C1470     Br1482   1.934       .  S
C1471      C1472   1.409       .  A
C1471     Br1486   1.933       .  S
C1472      C1475   1.493       .  S
C1472      C1473   1.413       .  A
C1473      C1474   1.413       .  A
C1473     Br1481   1.930       .  S
C1474     Br1485   1.930       .  S
C1475      C1476   1.411       .  A
C1475      C1480   1.413       .  A
C1476      C1477   1.406       .  A
C1476     Br1487   1.931       .  S
C1477      C1478   1.410       .  A
C1477     Br1483   1.931       .  S
C1478      C1479   1.413       .  A
C1479      C1480   1.413       .  A
C1479     Br1488   1.930       .  S
C1480     Br1484   1.929       .  S
C1489      C1490   1.414       .  A
C1489      C1494   1.418       .  A
C1490      C1491   1.413       .  A
C1490     Br1502   1.920   1_655  S
C1491      C1492   1.410       .  A
C1491     Br1506   1.930       .  S
C1492      C1495   1.488       .  S
C1492      C1493   1.404       .  A
C1493      C1494   1.406       .  A
C1493     Br1501   1.932       .  S
C1494     Br1505   1.925       .  S
C1495      C1496   1.410       .  A
C1495      C1500   1.408   1_655  A
C1496      C1497   1.411       .  A
C1496     Br1507   1.929       .  S
C1497      C1498   1.413       .  A
C1497     Br1503   1.930       .  S
C1498      C1499   1.412   1_655  A
C1499      C1500   1.407       .  A
C1499     Br1508   1.930       .  S
C1500     Br1504   1.930       .  S
C1509      C1510   1.424       .  A
C1509      C1514   1.430       .  A
C1510      C1511   1.412       .  A
C1510     Br1522   1.933       .  S
C1511      C1512   1.406       .  A
C1511     Br1526   1.933       .  S
C1512      C1515   1.488       .  S
C1512      C1513   1.402       .  A
C1513      C1514   1.409       .  A
C1513     Br1521   1.935       .  S
C1514     Br1525   1.937       .  S
C1515      C1516   1.408       .  A
C1515      C1520   1.404       .  A
C1516      C1517   1.413       .  A
C1516     Br1527   1.929       .  S
C1517      C1518   1.418       .  A
C1517     Br1523   1.930       .  S
C1518      C1519   1.421       .  A
C1519      C1520   1.406       .  A
C1519     Br1528   1.929       .  S
C1520     Br1524   1.934       .  S
C1529      C1530   1.415       .  A
C1529      C1534   1.423       .  A
C1530      C1531   1.417       .  A
C1530     Br1542   1.928       .  S
C1531      C1532   1.412       .  A
C1531     Br1546   1.928       .  S
C1532      C1535   1.503       .  S
C1532      C1533   1.408       .  A
C1533      C1534   1.414       .  A
C1533     Br1541   1.932       .  S
C1534     Br1545   1.935       .  S
C1535      C1536   1.411       .  A
C1535      C1540   1.412       .  A
C1536      C1537   1.413       .  A
C1536     Br1547   1.929       .  S
C1537      C1538   1.414       .  A
C1537     Br1543   1.928       .  S
C1538      C1539   1.415       .  A
C1539      C1540   1.416       .  A
C1539     Br1548   1.930   1_655  S
C1540     Br1544   1.928   1_655  S
C1549      C1550   1.410       .  A
C1549      C1554   1.409       .  A
C1550      C1551   1.409       .  A
C1550     Br1562   1.926       .  S
C1551      C1552   1.410       .  A
C1551     Br1566   1.930       .  S
C1552      C1555   1.487       .  S
C1552      C1553   1.410       .  A
C1553      C1554   1.406       .  A
C1553     Br1561   1.930       .  S
C1554     Br1565   1.926       .  S
C1555      C1556   1.413       .  A
C1555      C1560   1.405       .  A
C1556      C1557   1.411       .  A
C1556     Br1567   1.928       .  S
C1557      C1558   1.411       .  A
C1557     Br1563   1.930       .  S
C1558      C1559   1.418       .  A
C1559      C1560   1.404       .  A
C1559     Br1568   1.936       .  S
C1560     Br1564   1.932       .  S
C1569      C1570   1.426       .  A
C1569      C1574   1.421   1_655  A
C1570      C1571   1.411       .  A
C1570     Br1582   1.936       .  S
C1571      C1572   1.405       .  A
C1571     Br1586   1.935       .  S
C1572      C1575   1.494       .  S
C1572      C1573   1.409   1_655  A
C1573      C1574   1.416       .  A
C1573     Br1581   1.930       .  S
C1574     Br1585   1.930       .  S
C1575      C1576   1.407       .  A
C1575      C1580   1.414       .  A
C1576      C1577   1.406       .  A
C1576     Br1587   1.931       .  S
C1577      C1578   1.415       .  A
C1577     Br1583   1.933       .  S
C1578      C1579   1.410       .  A
C1579      C1580   1.415       .  A
C1579     Br1588   1.929   1_655  S
C1580     Br1584   1.926   1_655  S
C1589      C1590   1.422       .  A
C1589      C1594   1.417       .  A
C1590      C1591   1.410       .  A
C1590     Br1602   1.935       .  S
C1591      C1592   1.406       .  A
C1591     Br1606   1.932       .  S
C1592      C1595   1.495       .  S
C1592      C1593   1.410       .  A
C1593      C1594   1.415       .  A
C1593     Br1601   1.928       .  S
C1594     Br1605   1.930       .  S
C1595      C1596   1.409       .  A
C1595      C1600   1.411       .  A
C1596      C1597   1.411       .  A
C1596     Br1607   1.929       .  S
C1597      C1598   1.414       .  A
C1597     Br1603   1.931       .  S
C1598      C1599   1.414       .  A
C1599      C1600   1.413       .  A
C1599     Br1608   1.930       .  S
C1600     Br1604   1.929       .  S
C1609      C1610   1.408       .  A
C1609      C1614   1.409       .  A
C1610      C1611   1.403       .  A
C1610     Br1622   1.932       .  S
C1611      C1612   1.409       .  A
C1611     Br1626   1.930       .  S
C1612      C1615   1.481       .  S
C1612      C1613   1.409       .  A
C1613      C1614   1.408       .  A
C1613     Br1621   1.929       .  S
C1614     Br1625   1.928       .  S
C1615      C1616   1.409       .  A
C1615      C1620   1.403       .  A
C1616      C1617   1.411       .  A
C1616     Br1627   1.929       .  S
C1617      C1618   1.414       .  A
C1617     Br1623   1.925       .  S
C1618      C1619   1.421       .  A
C1619      C1620   1.403       .  A
C1619     Br1628   1.937       .  S
C1620     Br1624   1.933       .  S
C1629      C1630   1.410       .  A
C1629      C1634   1.414       .  A
C1630      C1631   1.410       .  A
C1630     Br1642   1.928       .  S
C1631      C1632   1.411       .  A
C1631     Br1646   1.929       .  S
C1632      C1635   1.486       .  S
C1632      C1633   1.407       .  A
C1633      C1634   1.404       .  A
C1633     Br1641   1.932       .  S
C1634     Br1645   1.932       .  S
C1635      C1636   1.408       .  A
C1635      C1640   1.403       .  A
C1636      C1637   1.411       .  A
C1636     Br1647   1.934       .  S
C1637      C1638   1.420       .  A
C1637     Br1643   1.934   1_545  S
C1638      C1639   1.428       .  A
C1639      C1640   1.407       .  A
C1639     Br1648   1.937       .  S
C1640     Br1644   1.933       .  S
C1649      C1650   1.415       .  A
C1649      C1654   1.420       .  A
C1650      C1651   1.417       .  A
C1650     Br1662   1.928       .  S
C1651      C1652   1.412       .  A
C1651     Br1666   1.929       .  S
C1652      C1655   1.501       .  S
C1652      C1653   1.408       .  A
C1653      C1654   1.412       .  A
C1653     Br1661   1.931       .  S
C1654     Br1665   1.933       .  S
C1655      C1656   1.411       .  A
C1655      C1660   1.412       .  A
C1656      C1657   1.412       .  A
C1656     Br1667   1.929       .  S
C1657      C1658   1.415       .  A
C1657     Br1663   1.931       .  S
C1658      C1659   1.416       .  A
C1659      C1660   1.415       .  A
C1659     Br1668   1.932       .  S
C1660     Br1664   1.929       .  S
C1669      C1670   1.407       .  A
C1669      C1674   1.410       .  A
C1670      C1671   1.408       .  A
C1670     Br1682   1.929       .  S
C1671      C1672   1.413       .  A
C1671     Br1686   1.929       .  S
C1672      C1675   1.488       .  S
C1672      C1673   1.412       .  A
C1673      C1674   1.405       .  A
C1673     Br1681   1.934       .  S
C1674     Br1685   1.930       .  S
C1675      C1676   1.416       .  A
C1675      C1680   1.408       .  A
C1676      C1677   1.412       .  A
C1676     Br1687   1.930       .  S
C1677      C1678   1.408       .  A
C1677     Br1683   1.929       .  S
C1678      C1679   1.414       .  A
C1679      C1680   1.402       .  A
C1679     Br1688   1.934   1_545  S
C1680     Br1684   1.933       .  S
C1689      C1690   1.410       .  A
C1689      C1694   1.409       .  A
C1690      C1691   1.412       .  A
C1690     Br1702   1.928       .  S
C1691      C1692   1.412       .  A
C1691     Br1706   1.927       .  S
C1692      C1695   1.498       .  S
C1692      C1693   1.413       .  A
C1693      C1694   1.411       .  A
C1693     Br1701   1.930       .  S
C1694     Br1705   1.929       .  S
C1695      C1696   1.412       .  A
C1695      C1700   1.404       .  A
C1696      C1697   1.417       .  A
C1696     Br1707   1.929       .  S
C1697      C1698   1.418       .  A
C1697     Br1703   1.930       .  S
C1698      C1699   1.428       .  A
C1699      C1700   1.410       .  A
C1699     Br1708   1.938       .  S
C1700     Br1704   1.935       .  S
C1709      C1710   1.413       .  A
C1709      C1714   1.415       .  A
C1710      C1711   1.409       .  A
C1710     Br1722   1.931       .  S
C1711      C1712   1.409       .  A
C1711     Br1726   1.930       .  S
C1712      C1715   1.490       .  S
C1712      C1713   1.409       .  A
C1713      C1714   1.410       .  A
C1713     Br1721   1.929       .  S
C1714     Br1725   1.932       .  S
C1715      C1716   1.410       .  A
C1715      C1720   1.404   1_565  A
C1716      C1717   1.414       .  A
C1716     Br1727   1.929       .  S
C1717      C1718   1.415       .  A
C1717     Br1723   1.928       .  S
C1718      C1719   1.425   1_565  A
C1719      C1720   1.408       .  A
C1719     Br1728   1.936       .  S
C1720     Br1724   1.934       .  S
