geometry optimzed in LAMMPS
_audit_creation_date              2020-12-01 
_audit_creation_method            'lammps2cif' 
_symmetry_space_group_name_H-M    'P1' 
_symmetry_Int_Tables_number       1 
_symmetry_cell_setting            triclinic 
loop_ 
_symmetry_equiv_pos_as_xyz 
  x,y,z 
_cell_length_a                    31.71581089 
_cell_length_b                    28.33136316700635 
_cell_length_c                    68.63351231033771 
_cell_angle_alpha                 90.12071968533772 
_cell_angle_beta                  89.89923989470742 
_cell_angle_gamma                 89.95293859983597 
loop_ 
_atom_site_label 
_atom_site_type_symbol 
_atom_site_fract_x 
_atom_site_fract_y 
_atom_site_fract_z 
_atom_site_charge 
Fe1        Fe  0.97915459  0.23809093  0.44377707     1.65800
Fe2        Fe  0.94888362  0.12558875  0.44381184     1.73200
Fe3        Fe  0.93798326  0.19092157  0.48459998     1.54400
O4          O  0.99646493  0.21511619  0.49292256    -0.82500
O5          O  0.89504312  0.10665871  0.45912329    -0.80800
O6          O  0.00862190  0.26519719  0.46860189    -0.85000
O7          O  0.92733373  0.27705703  0.44957318    -0.79900
O8          O  0.95702102  0.12190816  0.49115644    -0.81600
O9          O  0.91150120  0.15724969  0.42348576    -0.84400
C10         C  0.91112393  0.28676204  0.46597622     0.96400
C11         C  0.01507079  0.25085360  0.48592023     1.03800
O12         O  0.95534629  0.18488754  0.45755044    -1.13400
O13         O  0.00366147  0.13459684  0.42711496    -0.75800
O14         O  0.03257502  0.20066509  0.43800269    -0.79300
O15         O  0.91615220  0.26064317  0.48094746    -0.80000
C16         C  0.03584206  0.16043663  0.43007539     0.95300
O17         O  0.95129919  0.21984393  0.41695375    -0.77900
O18         O  0.98451540  0.09140707  0.46398410    -0.83100
C19         C  0.87070437  0.12592461  0.47156087     0.97900
C20         C  0.97587544  0.08877871  0.48199414     1.03800
O21         O  0.87836562  0.16651276  0.47851477    -0.78800
C22         C  0.92052280  0.19249748  0.41300187     1.02100
Fe23       Fe  0.76488790  0.23170275  0.31219107     1.65800
Fe24       Fe  0.79681824  0.11936763  0.31084391     1.73200
Fe25       Fe  0.81010055  0.18870235  0.27136331     1.54400
O26         O  0.75306468  0.21562994  0.26211933    -0.82500
O27         O  0.85206888  0.10081133  0.29575042    -0.80800
O28         O  0.73724124  0.26114281  0.28749496    -0.85000
O29         O  0.81706735  0.27229945  0.30796597    -0.79900
O30         O  0.79055342  0.12090459  0.26319374    -0.81600
O31         O  0.83221471  0.15045215  0.33240955    -0.84400
C32         C  0.83374491  0.28375348  0.29182584     0.96400
C33         C  0.73373870  0.25059481  0.26954415     1.03800
O34         O  0.79044298  0.17991500  0.29793500    -1.13400
O35         O  0.73991195  0.12604955  0.32654988    -0.75800
O36         O  0.71109494  0.19299447  0.31635725    -0.79300
O37         O  0.83136697  0.25743200  0.27677659    -0.80000
C38         C  0.70764641  0.15212249  0.32362304     0.95300
O39         O  0.79032768  0.21139032  0.33911337    -0.77900
O40         O  0.76312783  0.08677125  0.28964493    -0.83100
C41         C  0.87645596  0.12121921  0.28366492     0.97900
C42         C  0.77135592  0.08689514  0.27156191     1.03800
O43         O  0.86913509  0.16306649  0.27804596    -0.78800
C44         C  0.82178480  0.18515775  0.34309349     1.02100
Fe45       Fe  0.51542996  0.76201158  0.06221785     1.65800
Fe46       Fe  0.54059805  0.87651873  0.06089340     1.73200
Fe47       Fe  0.55107049  0.81003414  0.02068748     1.54400
O48         O  0.57578966  0.74192006  0.02445894    -0.82500
O49         O  0.50109932  0.90783154  0.04121160    -0.80800
O50         O  0.56928005  0.72608402  0.05618940    -0.85000
O51         O  0.48649071  0.73088717  0.03785593    -0.79900
O52         O  0.60985231  0.83731891  0.02591550    -0.81600
O53         O  0.48815353  0.86379938  0.07869321    -0.84400
C54         C  0.47775508  0.74484001  0.02067976     0.96400
C55         C  0.58412991  0.71697598  0.03944103     1.03800
O56         O  0.53571164  0.81614435  0.04781463    -1.13400
O57         O  0.58093663  0.84761122  0.08097880    -0.75800
O58         O  0.54301913  0.78417419  0.08861683    -0.79300
O59         O  0.49318512  0.78237571  0.01360808    -0.80000
C60         C  0.57246533  0.81355744  0.09230622     0.95300
O61         O  0.46040079  0.79682331  0.06806754    -0.77900
O62         O  0.59213259  0.89891736  0.04404434    -0.83100
C63         C  0.50904537  0.91026517  0.02313378     0.97900
C64         C  0.61619223  0.87942058  0.03150972     1.03800
O65         O  0.52908120  0.87790824  0.01400744    -0.78800
C66         C  0.45637853  0.83729420  0.07578144     1.02100
Fe67       Fe  0.73225910  0.76648361  0.19211248     1.65800
Fe68       Fe  0.70340084  0.87979355  0.19416439     1.73200
Fe69       Fe  0.69257753  0.81058389  0.23390404     1.54400
O70         O  0.67118760  0.74103008  0.22967282    -0.82500
O71         O  0.73991297  0.91093868  0.21488919    -0.80800
O72         O  0.68086356  0.72600847  0.19819733    -0.85000
O73         O  0.76371163  0.73907849  0.21622030    -0.79900
O74         O  0.63309815  0.83604129  0.22835772    -0.81600
O75         O  0.75808277  0.87241982  0.17696376    -0.84400
C76         C  0.77070832  0.75135965  0.23376675     0.96400
C77         C  0.66675515  0.71440622  0.21480854     1.03800
O78         O  0.70938189  0.81887937  0.20680261    -1.13400
O79         O  0.66539988  0.85103819  0.17305316    -0.75800
O80         O  0.70256662  0.78634329  0.16606773    -0.79300
O81         O  0.75093898  0.78532381  0.24168027    -0.80000
C82         C  0.67345720  0.81593587  0.16217902     0.95300
O83         O  0.78572081  0.80378515  0.18563584    -0.77900
O84         O  0.64996698  0.89807729  0.21034011    -0.83100
C85         C  0.73136754  0.91206559  0.23293807     0.97900
C86         C  0.62587925  0.87779172  0.22261684     1.03800
O87         O  0.71194755  0.87863258  0.24150616    -0.78800
C88         C  0.78944896  0.84433582  0.17814842     1.02100
Fe89       Fe  0.26710866  0.23799126  0.81308059     1.65800
Fe90       Fe  0.29178181  0.12317840  0.81079043     1.73200
Fe91       Fe  0.30545633  0.19223231  0.77151563     1.54400
O92         O  0.24778767  0.21831905  0.76373278    -0.82500
O93         O  0.34458398  0.10321318  0.79468866    -0.80800
O94         O  0.23714493  0.26721114  0.78872357    -0.85000
O95         O  0.32008955  0.27622871  0.80713286    -0.79900
O96         O  0.28539711  0.12513920  0.76370634    -0.81600
O97         O  0.33026195  0.14981183  0.83208811    -0.84400
C98         C  0.33247625  0.28786371  0.79022675     0.96400
C99         C  0.23014288  0.25417691  0.77120026     1.03800
O100        O  0.28809644  0.18456328  0.79844007    -1.13400
O101        O  0.23746973  0.13293084  0.82775060    -0.75800
O102        O  0.21239496  0.20277220  0.81908668    -0.79300
O103        O  0.32704886  0.26105877  0.77557234    -0.80000
C104        C  0.20699862  0.16202496  0.82614005     0.95300
O105        O  0.29573547  0.21628041  0.83924653    -0.77900
O106        O  0.25467689  0.09381892  0.78976727    -0.83100
C107        C  0.36945032  0.12305287  0.78271339     0.97900
C108        C  0.26435389  0.09250188  0.77183012     1.03800
O109        O  0.36412741  0.16576481  0.77769208    -0.78800
C110        C  0.32365145  0.18513662  0.84303613     1.02100
Fe111      Fe  0.48086903  0.23108330  0.94245780     1.65800
Fe112      Fe  0.45722499  0.11626240  0.94429095     1.73200
Fe113      Fe  0.43530918  0.18583475  0.98261677     1.54400
O114        O  0.49000800  0.21583369  0.99267137    -0.82500
O115        O  0.40308749  0.09367857  0.95884647    -0.80800
O116        O  0.50511651  0.26296654  0.96764928    -0.85000
O117        O  0.42626114  0.26764245  0.94546598    -0.79900
O118        O  0.45664902  0.11912175  0.99155787    -0.81600
O119        O  0.42059758  0.14279745  0.92226176    -0.84400
C120        C  0.40781874  0.27800473  0.96124238     0.96400
C121        C  0.50879963  0.25134304  0.98552269     1.03800
O122        O  0.45815407  0.17780754  0.95664369    -1.13400
O123        O  0.51293994  0.12817123  0.92863915    -0.75800
O124        O  0.53715148  0.19703676  0.93898833    -0.79300
O125        O  0.41126273  0.25314900  0.97663460    -0.80000
C126        C  0.54320705  0.15706752  0.93126736     0.95300
O127        O  0.45784127  0.20734285  0.91545137    -0.77900
O128        O  0.49225282  0.08808812  0.96648377    -0.83100
C129        C  0.37577856  0.11343289  0.96974768     0.97900
C130        C  0.48000056  0.08698213  0.98412439     1.03800
O131        O  0.37903643  0.15656272  0.97433856    -0.78800
C132        C  0.42871139  0.17786496  0.91141660     1.02100
Fe133      Fe  0.22497291  0.77269438  0.69110903     1.65800
Fe134      Fe  0.19802003  0.88698336  0.69327056     1.73200
Fe135      Fe  0.18663067  0.81831904  0.73285452     1.54400
O136        O  0.16542414  0.74976492  0.72904449    -0.82500
O137        O  0.23448931  0.91772132  0.71400022    -0.80800
O138        O  0.17252365  0.73332942  0.69737917    -0.85000
O139        O  0.25566020  0.74406697  0.71534022    -0.79900
O140        O  0.12710321  0.84325195  0.72702097    -0.81600
O141        O  0.25286383  0.87872125  0.67645365    -0.84400
C142        C  0.26274627  0.75695471  0.73286265     0.96400
C143        C  0.15894860  0.72366504  0.71430460     1.03800
O144        O  0.20316588  0.82584481  0.70577109    -1.13400
O145        O  0.16017323  0.85927945  0.67209708    -0.75800
O146        O  0.19539640  0.79336056  0.66509335    -0.79300
O147        O  0.24495214  0.79273259  0.74041065    -0.80000
C148        C  0.16667370  0.82360780  0.66137157     0.95300
O149        O  0.27940111  0.80939832  0.68485190    -0.77900
O150        O  0.14435262  0.90550945  0.70924890    -0.83100
C151        C  0.22519173  0.91924285  0.73193657     0.97900
C152        C  0.11978873  0.88497150  0.72120408     1.03800
O153        O  0.20559379  0.88598315  0.74039232    -0.78800
C154        C  0.28422259  0.85101907  0.67838653     1.02100
Fe155      Fe  0.01340901  0.77086962  0.56059689     1.65800
Fe156      Fe  0.04364517  0.88284696  0.55796078     1.73200
Fe157      Fe  0.05794876  0.81172507  0.51928358     1.54400
O158        O  0.08067027  0.74395237  0.52547289    -0.82500
O159        O  0.00711302  0.91188319  0.53685517    -0.80800
O160        O  0.06561422  0.73024229  0.55666525    -0.85000
O161        O  0.98588291  0.73928952  0.53634372    -0.79900
O162        O  0.11634142  0.83949111  0.52538747    -0.81600
O163        O  0.98978302  0.87498828  0.57514894    -0.84400
C164        C  0.98284364  0.74838785  0.51826909     0.96400
C165        C  0.08291435  0.71832014  0.54070103     1.03800
O166        O  0.03838187  0.82154367  0.54574495    -1.13400
O167        O  0.08122431  0.85455488  0.57903677    -0.75800
O168        O  0.03943354  0.79434928  0.58699327    -0.79300
O169        O  0.00177701  0.78304681  0.51056386    -0.80000
C170        C  0.07046973  0.82167587  0.59048480     0.95300
O171        O  0.95946562  0.80961596  0.56451462    -0.77900
O172        O  0.09662972  0.90228341  0.54214572    -0.83100
C173        C  0.01569686  0.91179040  0.51878904     0.97900
C174        C  0.12204091  0.88192801  0.53053819     1.03800
O175        O  0.03644298  0.87849078  0.51060728    -0.78800
C176        C  0.95702152  0.85035390  0.57208779     1.02100
Fe177      Fe  0.23073122  0.98173525  0.05977192     1.65800
Fe178      Fe  0.20036467  0.86910750  0.05792982     1.73200
Fe179      Fe  0.19318133  0.93668452  0.01785231     1.54400
O180        O  0.17212006  0.00649542  0.02176183    -0.82500
O181        O  0.23856188  0.83708613  0.03808329    -0.80800
O182        O  0.17948233  0.02227270  0.05353546    -0.85000
O183        O  0.26219019  0.01037084  0.03550532    -0.79900
O184        O  0.13302411  0.91209870  0.02245429    -0.81600
O185        O  0.25306816  0.87734915  0.07587427    -0.84400
C186        C  0.26983595  0.99629451  0.01817098     0.96400
C187        C  0.16583103  0.03253899  0.03670077     1.03800
O188        O  0.20764526  0.92943249  0.04513174    -1.13400
O189        O  0.16132146  0.89868580  0.07830430    -0.75800
O190        O  0.20080801  0.96096498  0.08602323    -0.79300
O191        O  0.25226999  0.96023646  0.01096921    -0.80000
C192        C  0.17068703  0.93227296  0.08970978     0.95300
O193        O  0.28367893  0.94320566  0.06585211    -0.77900
O194        O  0.14829855  0.85063357  0.04104510    -0.83100
C195        C  0.23094257  0.83491995  0.01999922     0.97900
C196        C  0.12530182  0.87051419  0.02825552     1.03800
O197        O  0.21251847  0.86825712  0.01094513    -0.78800
C198        C  0.28579065  0.90263415  0.07354496     1.02100
Fe199      Fe  0.01958072  0.98363874  0.19247134     1.65800
Fe200      Fe  0.04516946  0.86941649  0.19418769     1.73200
Fe201      Fe  0.05665648  0.93758384  0.23422325     1.54400
O202        O  0.07997487  0.00589044  0.23012451    -0.82500
O203        O  0.00773852  0.83870420  0.21469966    -0.80800
O204        O  0.07294402  0.02066675  0.19836541    -0.85000
O205        O  0.99008644  0.01398949  0.21700593    -0.79900
O206        O  0.11557079  0.91107263  0.22864554    -0.81600
O207        O  0.99079339  0.87936590  0.17708025    -0.84400
C208        C  0.98342434  0.00273732  0.23475530     0.96400
C209        C  0.08729219  0.03080863  0.21506579     1.03800
O210        O  0.04031579  0.93021002  0.20706576    -1.13400
O211        O  0.08420166  0.89680172  0.17321149    -0.75800
O212        O  0.04802809  0.96179886  0.16608798    -0.79300
O213        O  0.99910321  0.96539690  0.24195541    -0.80000
C214        C  0.07680952  0.93160777  0.16219706     0.95300
O215        O  0.96474910  0.94866766  0.18625149    -0.77900
O216        O  0.09814384  0.84975799  0.21028022    -0.83100
C217        C  0.01606013  0.83679434  0.23271970     0.97900
C218        C  0.12238052  0.86947779  0.22265439     1.03800
O219        O  0.03593116  0.86964056  0.24155865    -0.78800
C220        C  0.96007321  0.90839201  0.17850741     1.02100
Fe221      Fe  0.97794254  0.51619651  0.31243551     1.65800
Fe222      Fe  0.95493082  0.63094643  0.30988021     1.73200
Fe223      Fe  0.94006645  0.56123815  0.27085520     1.54400
O224        O  0.99634699  0.53122297  0.26307509    -0.82500
O225        O  0.90368204  0.65378110  0.29338161    -0.80800
O226        O  0.00592716  0.48360382  0.28832778    -0.85000
O227        O  0.92390038  0.47975367  0.30760714    -0.79900
O228        O  0.96362084  0.62768700  0.26292043    -0.81600
O229        O  0.91477678  0.60511614  0.33049090    -0.84400
C230        C  0.90828513  0.46924328  0.29120073     0.96400
C231        C  0.01255370  0.49465859  0.27061785     1.03800
O232        O  0.95757191  0.56930692  0.29759383    -1.13400
O233        O  0.00753427  0.61875849  0.32749318    -0.75800
O234        O  0.03323479  0.55052462  0.31724064    -0.79300
O235        O  0.91466640  0.49389077  0.27592083    -0.80000
C236        C  0.03837995  0.59059080  0.32496218     0.95300
O237        O  0.95134480  0.54085092  0.33852878    -0.77900
O238        O  0.99420047  0.65843683  0.28930129    -0.83100
C239        C  0.87858972  0.63397549  0.28149911     0.97900
C240        C  0.98552989  0.65970721  0.27128811     1.03800
O241        O  0.88252870  0.59089759  0.27679802    -0.78800
C242        C  0.92209163  0.57077390  0.34177976     1.02100
Fe243      Fe  0.76534856  0.52357925  0.44107931     1.65800
Fe244      Fe  0.79483970  0.63609295  0.44413523     1.73200
Fe245      Fe  0.80780782  0.56493258  0.48261641     1.54400
O246        O  0.75014999  0.53896740  0.49079195    -0.82500
O247        O  0.84774770  0.65408946  0.46020686    -0.80800
O248        O  0.73648939  0.49284803  0.46523023    -0.85000
O249        O  0.81757007  0.48338510  0.44555839    -0.79900
O250        O  0.78849914  0.63305222  0.49121175    -0.81600
O251        O  0.83306222  0.60766425  0.42318835    -0.84400
C252        C  0.83220265  0.47024892  0.46178673     0.96400
C253        C  0.73117772  0.50436422  0.48301687     1.03800
O254        O  0.78908295  0.57472172  0.45610548    -1.13400
O255        O  0.74113287  0.62872161  0.42679235    -0.75800
O256        O  0.71154419  0.56191497  0.43636960    -0.79300
O257        O  0.82871432  0.49577208  0.47707158    -0.80000
C258        C  0.70874258  0.60293897  0.42912923     0.95300
O259        O  0.79274010  0.54641281  0.41501306    -0.77900
O260        O  0.75794923  0.66587453  0.46523339    -0.83100
C261        C  0.87335960  0.63254703  0.47122727     0.97900
C262        C  0.76704888  0.66600951  0.48322844     1.03800
O263        O  0.86698182  0.59008421  0.47623404    -0.78800
C264        C  0.82379991  0.57387571  0.41187809     1.02100
Fe265      Fe  0.51560351  0.99299614  0.69208104     1.65800
Fe266      Fe  0.54549928  0.88013749  0.69376031     1.73200
Fe267      Fe  0.55533970  0.94819613  0.73378335     1.54400
O268        O  0.57810731  0.01679505  0.72920738    -0.82500
O269        O  0.50926031  0.84764882  0.71424203    -0.80800
O270        O  0.56799159  0.03252335  0.69762025    -0.85000
O271        O  0.48589854  0.02242814  0.71627119    -0.79900
O272        O  0.61493680  0.92250001  0.72872747    -0.81600
O273        O  0.49030948  0.88787543  0.67696885    -0.84400
C274        C  0.47957825  0.01029516  0.73385066     0.96400
C275        C  0.58427209  0.04193352  0.71405479     1.03800
O276        O  0.53893256  0.94052177  0.70666732    -1.13400
O277        O  0.58333276  0.91021854  0.67274453    -0.75800
O278        O  0.54337689  0.97241770  0.66565812    -0.79300
O279        O  0.49722995  0.97441626  0.74125495    -0.80000
C280        C  0.57364006  0.94438414  0.66170631     0.95300
O281        O  0.46155265  0.95533703  0.68659252    -0.77900
O282        O  0.59901593  0.86173011  0.70987733    -0.83100
C283        C  0.51685012  0.84622675  0.73235671     0.97900
C284        C  0.62247478  0.88107006  0.72262526     1.03800
O285        O  0.53520480  0.87997347  0.74132165    -0.78800
C286        C  0.45802400  0.91414920  0.67947684     1.02100
Fe287      Fe  0.72787240  0.99211553  0.55981003     1.65800
Fe288      Fe  0.70122043  0.87875608  0.55988570     1.73200
Fe289      Fe  0.69012688  0.94253411  0.51906300     1.54400
O290        O  0.66839320  0.01214195  0.52238098    -0.82500
O291        O  0.73907182  0.84495490  0.54006212    -0.80800
O292        O  0.67345576  0.02661744  0.55414192    -0.85000
O293        O  0.75539258  0.02129566  0.53479843    -0.79900
O294        O  0.63097611  0.91737299  0.52518354    -0.81600
O295        O  0.75493568  0.89141554  0.57683010    -0.84400
C296        C  0.76324727  0.00648760  0.51762117     0.96400
C297        C  0.66227337  0.03864802  0.53716883     1.03800
O298        O  0.70675653  0.93761222  0.54607306    -1.13400
O299        O  0.66218303  0.91026619  0.58005706    -0.75800
O300        O  0.70205574  0.97255327  0.58678593    -0.79300
O301        O  0.74804169  0.96818844  0.51114748    -0.80000
C302        C  0.67175174  0.94485657  0.59095111     0.95300
O303        O  0.78290108  0.95744438  0.56533005    -0.77900
O304        O  0.64865293  0.85709014  0.54389033    -0.83100
C305        C  0.73120494  0.84194591  0.52198446     0.97900
C306        C  0.62442080  0.87582322  0.53133705     1.03800
O307        O  0.71064481  0.87368020  0.51279137    -0.78800
C308        C  0.78680587  0.91753079  0.57347823     1.02100
Fe309      Fe  0.47712349  0.51923586  0.80762652     1.65800
Fe310      Fe  0.44999605  0.63326429  0.80609220     1.73200
Fe311      Fe  0.43825387  0.56539998  0.76603623     1.54400
O312        O  0.49567172  0.53690123  0.75817916    -0.82500
O313        O  0.39729527  0.65429564  0.79011820    -0.80800
O314        O  0.50740303  0.48924340  0.78337085    -0.85000
O315        O  0.42485005  0.48093285  0.80193760    -0.79900
O316        O  0.46043728  0.63287559  0.75865537    -0.81600
O317        O  0.41104455  0.60477406  0.82683755    -0.84400
C318        C  0.40741503  0.47217509  0.78576890     0.96400
C319        C  0.51413539  0.50178985  0.76581276     1.03800
O320        O  0.45503647  0.57249780  0.79310875    -1.13400
O321        O  0.50383811  0.62321185  0.82326385    -0.75800
O322        O  0.53137970  0.55533507  0.81344091    -0.79300
O323        O  0.41312400  0.49747732  0.77059345    -0.80000
C324        C  0.53535456  0.59575048  0.82105189     0.95300
O325        O  0.44803935  0.54034305  0.83395472    -0.77900
O326        O  0.48755026  0.66427507  0.78569117    -0.83100
C327        C  0.37302045  0.63532366  0.77760356     0.97900
C328        C  0.47957762  0.66610579  0.76760452     1.03800
O329        O  0.37966603  0.59380798  0.77140172    -0.78800
C330        C  0.41835541  0.56957458  0.83768969     1.02100
Fe331      Fe  0.26538209  0.51698992  0.93993948     1.65800
Fe332      Fe  0.29645750  0.62914325  0.94272372     1.73200
Fe333      Fe  0.30939182  0.55778116  0.98146426     1.54400
O334        O  0.25204453  0.53130920  0.98995209    -0.82500
O335        O  0.34988916  0.64742231  0.95871854    -0.80800
O336        O  0.23626063  0.48637691  0.96434194    -0.85000
O337        O  0.31706235  0.47560401  0.94408679    -0.79900
O338        O  0.28922290  0.62470260  0.99027284    -0.81600
O339        O  0.33330517  0.60093918  0.92096134    -0.84400
C340        C  0.33384257  0.46378107  0.96012107     0.96400
C341        C  0.23207771  0.49739221  0.98227106     1.03800
O342        O  0.29065312  0.56772726  0.95481876    -1.13400
O343        O  0.24156964  0.62288548  0.92592342    -0.75800
O344        O  0.21186443  0.55623867  0.93561169    -0.79300
O345        O  0.33109186  0.48944222  0.97537459    -0.80000
C346        C  0.20904994  0.59731409  0.92843790     0.95300
O347        O  0.29252249  0.53945163  0.91343952    -0.77900
O348        O  0.26064170  0.65852787  0.96413720    -0.83100
C349        C  0.37407586  0.62720540  0.97090436     0.97900
C350        C  0.26891930  0.65823194  0.98222257     1.03800
O351        O  0.36844292  0.58448450  0.97569091    -0.78800
C352        C  0.32280978  0.56763932  0.90956139     1.02100
Fe353      Fe  0.72620155  0.48130958  0.06137531     1.65800
Fe354      Fe  0.69686204  0.36840167  0.05911406     1.73200
Fe355      Fe  0.68703109  0.43767425  0.01944619     1.54400
O356        O  0.66561575  0.50699621  0.02414794    -0.82500
O357        O  0.73285734  0.33670132  0.03844293    -0.80800
O358        O  0.67380036  0.52053423  0.05587360    -0.85000
O359        O  0.75631564  0.51126090  0.03730211    -0.79900
O360        O  0.62728741  0.41185081  0.02444381    -0.81600
O361        O  0.75207941  0.37554560  0.07572924    -0.84400
C362        C  0.76306491  0.49931798  0.01967849     0.96400
C363        C  0.66077103  0.53302224  0.03918586     1.03800
O364        O  0.70321935  0.42916831  0.04653543    -1.13400
O365        O  0.65932249  0.39725898  0.08029732    -0.75800
O366        O  0.69819007  0.46006160  0.08769947    -0.79300
O367        O  0.74544757  0.46358848  0.01206694    -0.80000
C368        C  0.66828128  0.43142812  0.09143368     0.95300
O369        O  0.78016549  0.44382743  0.06670627    -0.77900
O370        O  0.64296098  0.35092111  0.04333448    -0.83100
C371        C  0.72540816  0.33585805  0.02033019     0.97900
C372        C  0.61918809  0.37086505  0.03086798     1.03800
O373        O  0.70683137  0.36970774  0.01162778    -0.78800
C374        C  0.78392366  0.40255114  0.07353594     1.02100
Fe375      Fe  0.51661049  0.48268424  0.19319628     1.65800
Fe376      Fe  0.54338891  0.36876277  0.19519459     1.73200
Fe377      Fe  0.55657437  0.43758707  0.23477182     1.54400
O378        O  0.58092534  0.50550514  0.23000545    -0.82500
O379        O  0.50582451  0.33940334  0.21584328    -0.80800
O380        O  0.56914486  0.52227866  0.19865814    -0.85000
O381        O  0.48696427  0.51275315  0.21730521    -0.79900
O382        O  0.61519496  0.40892014  0.22923116    -0.81600
O383        O  0.48957854  0.37825357  0.17804175    -0.84400
C384        C  0.48110265  0.50124173  0.23500771     0.96400
C385        C  0.58611748  0.53139590  0.21498532     1.03800
O386        O  0.53919173  0.42997085  0.20781664    -1.13400
O387        O  0.58198631  0.39620472  0.17420991    -0.75800
O388        O  0.54463468  0.46046193  0.16694911    -0.79300
O389        O  0.49940126  0.46609752  0.24269396    -0.80000
C390        C  0.57388597  0.43082491  0.16317431     0.95300
O391        O  0.46209364  0.44591693  0.18790056    -0.77900
O392        O  0.59601087  0.34792965  0.21117293    -0.83100
C393        C  0.51485996  0.33747307  0.23379726     0.97900
C394        C  0.62100095  0.36685402  0.22332257     1.03800
O395        O  0.53471512  0.37047769  0.24248829    -0.78800
C396        C  0.45786058  0.40496509  0.18069946     1.02100
Fe397      Fe  0.26490125  0.01873175  0.44216290     1.65800
Fe398      Fe  0.29464079  0.13136595  0.44373354     1.73200
Fe399      Fe  0.30604845  0.06315691  0.48343028     1.54400
O400        O  0.24782390  0.03809360  0.49140605    -0.82500
O401        O  0.34858328  0.14987507  0.45942756    -0.80800
O402        O  0.23691866  0.98852562  0.46678803    -0.85000
O403        O  0.31774588  0.97988656  0.44689534    -0.79900
O404        O  0.28715437  0.13124080  0.49118056    -0.81600
O405        O  0.33140155  0.10199246  0.42233384    -0.84400
C406        C  0.33115519  0.96781907  0.46356304     0.96400
C407        C  0.23037280  0.00174126  0.48428813     1.03800
O408        O  0.28879033  0.07102775  0.45653641    -1.13400
O409        O  0.23958728  0.12279666  0.42723663    -0.75800
O410        O  0.21077304  0.05616936  0.43763948    -0.79300
O411        O  0.32658963  0.99393420  0.47857747    -0.80000
C412        C  0.20741285  0.09685391  0.43015762     0.95300
O413        O  0.29065176  0.04027044  0.41536012    -0.77900
O414        O  0.25889089  0.16305245  0.46460533    -0.83100
C415        C  0.37262650  0.13005370  0.47183659     0.97900
C416        C  0.26794134  0.16471408  0.48256996     1.03800
O417        O  0.36563770  0.08835653  0.47772317    -0.78800
C418        C  0.32056638  0.06852343  0.41115052     1.02100
Fe419      Fe  0.47240129  0.01070764  0.30970794     1.65800
Fe420      Fe  0.45097104  0.12617627  0.30731674     1.73200
Fe421      Fe  0.43825757  0.05759212  0.26766267     1.54400
O422        O  0.49646455  0.03046831  0.26103543    -0.82500
O423        O  0.39795386  0.14682683  0.29101649    -0.80800
O424        O  0.50297910  0.97987547  0.28565555    -0.85000
O425        O  0.41839777  0.97563097  0.30324764    -0.79900
O426        O  0.45951743  0.12492857  0.26026382    -0.81600
O427        O  0.41145241  0.10122747  0.32856521    -0.84400
C428        C  0.40805585  0.96289759  0.28622517     0.96400
C429        C  0.51264976  0.99385601  0.26854685     1.03800
O430        O  0.45359838  0.06477553  0.29490688    -1.13400
O431        O  0.50566249  0.11495351  0.32409948    -0.75800
O432        O  0.52809374  0.04350024  0.31609095    -0.79300
O433        O  0.41517054  0.98861082  0.27135507    -0.80000
C434        C  0.53535086  0.08466662  0.32235642     0.95300
O435        O  0.44310421  0.03335757  0.33566868    -0.77900
O436        O  0.48950583  0.15444572  0.28677852    -0.83100
C437        C  0.37321857  0.12749370  0.27865406     0.97900
C438        C  0.48005714  0.15727595  0.26893713     1.03800
O439        O  0.37937107  0.08557752  0.27265993    -0.78800
C440        C  0.41593490  0.06545303  0.33939311     1.02100
Fe441      Fe  0.02255102  0.49098401  0.69359246     1.65800
Fe442      Fe  0.04653968  0.37665019  0.69593761     1.73200
Fe443      Fe  0.05811809  0.44526648  0.73558085     1.54400
O444        O  0.08165562  0.51377723  0.73111514    -0.82500
O445        O  0.00777044  0.34713007  0.71630292    -0.80800
O446        O  0.07672814  0.52627111  0.69911664    -0.85000
O447        O  0.99372746  0.52329657  0.71765992    -0.79900
O448        O  0.11692154  0.41747915  0.73065234    -0.81600
O449        O  0.99280700  0.38790006  0.67861745    -0.84400
C450        C  0.98443421  0.50994552  0.73485527     0.96400
C451        C  0.08825820  0.53888290  0.71598393     1.03800
O452        O  0.04249284  0.43761588  0.70847332    -1.13400
O453        O  0.08639309  0.40342634  0.67509238    -0.75800
O454        O  0.04942258  0.46740797  0.66733493    -0.79300
O455        O  0.00017051  0.47308629  0.74237247    -0.80000
C456        C  0.07812364  0.43716540  0.66362665     0.95300
O457        O  0.96722820  0.45705649  0.68811378    -0.77900
O458        O  0.09880037  0.35604246  0.71246166    -0.83100
C459        C  0.01547801  0.34558375  0.73439054     0.97900
C460        C  0.12310925  0.37548683  0.72490714     1.03800
O461        O  0.03630067  0.37781252  0.74315282    -0.78800
C462        C  0.96210702  0.41679899  0.68050612     1.02100
Fe463      Fe  0.23031818  0.48524610  0.56156532     1.65800
Fe464      Fe  0.20310530  0.37150225  0.55970471     1.73200
Fe465      Fe  0.18760386  0.44047469  0.52043902     1.54400
O466        O  0.16286297  0.50770267  0.52599176    -0.82500
O467        O  0.23970456  0.34198717  0.53852863    -0.80800
O468        O  0.17757357  0.52413659  0.55710442    -0.85000
O469        O  0.25834201  0.51595058  0.53702760    -0.79900
O470        O  0.12972738  0.41089723  0.52646497    -0.81600
O471        O  0.25750619  0.38143479  0.57637469    -0.84400
C472        C  0.26314082  0.50423710  0.51922037     0.96400
C473        C  0.15927108  0.53346121  0.54119154     1.03800
O474        O  0.20682109  0.43261924  0.54709480    -1.13400
O475        O  0.16530972  0.39936705  0.58109898    -0.75800
O476        O  0.20388275  0.46285771  0.58815875    -0.79300
O477        O  0.24373461  0.46971145  0.51167766    -0.80000
C478        C  0.17463057  0.43352787  0.59225732     0.95300
O479        O  0.28509922  0.44883971  0.56616707    -0.77900
O480        O  0.15010506  0.34993271  0.54423950    -0.83100
C481        C  0.23097645  0.34137522  0.52048374     0.97900
C482        C  0.12472566  0.36875946  0.53223626     1.03800
O483        O  0.21032065  0.37433366  0.51224164    -0.78800
C484        C  0.28907112  0.40842615  0.57374070     1.02100
Fe485      Fe  0.97780164  0.02184573  0.81112893     1.65800
Fe486      Fe  0.95114999  0.13536066  0.81009835     1.73200
Fe487      Fe  0.93772203  0.06833352  0.76995328     1.54400
O488        O  0.99404095  0.03853772  0.76156243    -0.82500
O489        O  0.89893943  0.15737646  0.79419049    -0.80800
O490        O  0.00543818  0.99103121  0.78664672    -0.85000
O491        O  0.92437551  0.98469653  0.80619924    -0.79900
O492        O  0.96049823  0.13553091  0.76257787    -0.81600
O493        O  0.91226605  0.10629441  0.83078716    -0.84400
C494        C  0.90744152  0.97557466  0.78993357     0.96400
C495        C  0.01069861  0.00186326  0.76884162     1.03800
O496        O  0.95560208  0.07511904  0.79685295    -1.13400
O497        O  0.00511228  0.12422964  0.82716198    -0.75800
O498        O  0.03261013  0.05732680  0.81618195    -0.79300
O499        O  0.91275571  0.00096645  0.77478431    -0.80000
C500        C  0.03656468  0.09679037  0.82462687     0.95300
O501        O  0.95176146  0.04366239  0.83772861    -0.77900
O502        O  0.98860547  0.16635495  0.78963015    -0.83100
C503        C  0.87477005  0.13947979  0.78145752     0.97900
C504        C  0.98083749  0.16795876  0.77151277     1.03800
O505        O  0.87966529  0.09722866  0.77576269    -0.78800
C506        C  0.92197095  0.07220460  0.84184688     1.02100
Fe507      Fe  0.76945170  0.01217536  0.94318000     1.65800
Fe508      Fe  0.79715696  0.12528331  0.94534847     1.73200
Fe509      Fe  0.80513591  0.05681141  0.98523716     1.54400
O510        O  0.74666483  0.03054238  0.99229211    -0.82500
O511        O  0.84873336  0.14472553  0.96225906    -0.80800
O512        O  0.73856132  0.98224449  0.96714805    -0.85000
O513        O  0.82230928  0.97453409  0.94926464    -0.79900
O514        O  0.78433467  0.12496967  0.99228540    -0.81600
O515        O  0.83708422  0.09643359  0.92513062    -0.84400
C516        C  0.83340194  0.96161523  0.96616980     0.96400
C517        C  0.73016163  0.99418117  0.98463626     1.03800
O518        O  0.79046175  0.06477860  0.95806052    -1.13400
O519        O  0.74458460  0.11571963  0.92738881    -0.75800
O520        O  0.71571025  0.04857686  0.93724035    -0.79300
O521        O  0.82712916  0.98738139  0.98117907    -0.80000
C522        C  0.71264608  0.08894127  0.92953859     0.95300
O523        O  0.79807783  0.03415433  0.91708398    -0.77900
O524        O  0.75842806  0.15663083  0.96515377    -0.83100
C525        C  0.87209310  0.12429043  0.97472419     0.97900
C526        C  0.76546564  0.15825470  0.98331184     1.03800
O527        O  0.86463519  0.08246393  0.98020214    -0.78800
C528        C  0.82758902  0.06343288  0.91348547     1.02100
Fe529      Fe  0.97483155  0.73219276  0.94177532     1.65800
Fe530      Fe  0.95374885  0.61684795  0.94378857     1.73200
Fe531      Fe  0.94155322  0.68412385  0.98376000     1.54400
O532        O  0.99893523  0.71350245  0.99037896    -0.82500
O533        O  0.90279367  0.59387676  0.96077136    -0.80800
O534        O  0.00468061  0.76381936  0.96566228    -0.85000
O535        O  0.92038395  0.76722927  0.94834720    -0.79900
O536        O  0.96472007  0.61716859  0.99060339    -0.81600
O537        O  0.91269110  0.64237722  0.92342179    -0.84400
C538        C  0.90675820  0.77656506  0.96531498     0.96400
C539        C  0.01433804  0.75051851  0.98282413     1.03800
O540        O  0.95646021  0.67787752  0.95649429    -1.13400
O541        O  0.00576369  0.62993912  0.92582933    -0.75800
O542        O  0.03071267  0.69915716  0.93529175    -0.79300
O543        O  0.91581320  0.75154587  0.98014376    -0.80000
C544        C  0.03635315  0.65847592  0.92797540     0.95300
O545        O  0.94630031  0.70868172  0.91592672    -0.77900
O546        O  0.99438420  0.58888273  0.96357023    -0.83100
C547        C  0.87805722  0.61252010  0.97323237     0.97900
C548        C  0.98568924  0.58564526  0.98149981     1.03800
O549        O  0.88330512  0.65478360  0.97894823    -0.78800
C550        C  0.91874872  0.67719490  0.91216755     1.02100
Fe551      Fe  0.76823391  0.74002215  0.81153270     1.65800
Fe552      Fe  0.79038591  0.62547424  0.80656830     1.73200
Fe553      Fe  0.80628484  0.69902343  0.76901415     1.54400
O554        O  0.74919127  0.72823531  0.76206240    -0.82500
O555        O  0.84385072  0.60677750  0.79051219    -0.80800
O556        O  0.74023488  0.77492442  0.78780420    -0.85000
O557        O  0.82281450  0.77607611  0.80717080    -0.79900
O558        O  0.78513741  0.63299313  0.75947764    -0.81600
O559        O  0.82832220  0.64701815  0.82877768    -0.84400
C560        C  0.83558500  0.79011963  0.79067309     0.96400
C561        C  0.73319291  0.76461529  0.76999164     1.03800
O562        O  0.78863672  0.68832454  0.79572004    -1.13400
O563        O  0.73593714  0.63466061  0.82338669    -0.75800
O564        O  0.71219533  0.70587087  0.81596808    -0.79300
O565        O  0.82937450  0.76637517  0.77517800    -0.80000
C566        C  0.70585022  0.66430578  0.82199170     0.95300
O567        O  0.79485474  0.71305503  0.83728158    -0.77900
O568        O  0.75278396  0.60107525  0.78488239    -0.83100
C569        C  0.86991639  0.62752161  0.77924318     0.97900
C570        C  0.76347001  0.60004330  0.76712350     1.03800
O571        O  0.86462692  0.67014502  0.77417856    -0.78800
C572        C  0.82108161  0.67993227  0.84081367     1.02100
Fe573      Fe  0.02113847  0.26383625  0.05967451     1.65800
Fe574      Fe  0.04029049  0.37949304  0.05713023     1.73200
Fe575      Fe  0.06081061  0.31016796  0.01832249     1.54400
O576        O  0.08653341  0.24322413  0.02316383    -0.82500
O577        O  0.00261728  0.40496590  0.03548994    -0.80800
O578        O  0.07633855  0.22862925  0.05467686    -0.85000
O579        O  0.99392316  0.23245509  0.03531156    -0.79900
O580        O  0.11738229  0.34145272  0.02502353    -0.81600
O581        O  0.98538858  0.36687041  0.07340991    -0.84400
C582        C  0.98732397  0.24411338  0.01764845     0.96400
C583        C  0.09141971  0.21745067  0.03816357     1.03800
O584        O  0.04089106  0.31764106  0.04499717    -1.13400
O585        O  0.07877585  0.35610751  0.07918339    -0.75800
O586        O  0.04680852  0.28803303  0.08605136    -0.79300
O587        O  0.00540395  0.27918827  0.00981785    -0.80000
C588        C  0.07317572  0.32057013  0.09011563     0.95300
O589        O  0.96401782  0.29568974  0.06472837    -0.77900
O590        O  0.09317445  0.40286033  0.04162369    -0.83100
C591        C  0.01365246  0.40675984  0.01776116     0.97900
C592        C  0.11996782  0.38456295  0.03002589     1.03800
O593        O  0.03735605  0.37573026  0.00992521    -0.78800
C594        C  0.95614871  0.33638882  0.07138719     1.02100
Fe595      Fe  0.22511889  0.26602222  0.19157007     1.65800
Fe596      Fe  0.19963434  0.38003960  0.19459217     1.73200
Fe597      Fe  0.18659118  0.30990486  0.23349804     1.54400
O598        O  0.16513723  0.24123310  0.22878530    -0.82500
O599        O  0.23739371  0.40873217  0.21565334    -0.80800
O600        O  0.17149852  0.22872130  0.19691241    -0.85000
O601        O  0.25439279  0.23472531  0.21580164    -0.79900
O602        O  0.12754958  0.33608849  0.22762890    -0.81600
O603        O  0.25343024  0.37036148  0.17735640    -0.84400
C604        C  0.26209006  0.24751841  0.23329916     0.96400
C605        C  0.15916715  0.21600600  0.21368357     1.03800
O606        O  0.20378354  0.31855759  0.20661415    -1.13400
O607        O  0.16075852  0.35387241  0.17325460    -0.75800
O608        O  0.19744502  0.28948240  0.16537875    -0.79300
O609        O  0.24475747  0.28348607  0.24094402    -0.80000
C610        C  0.16859953  0.31974814  0.16182619     0.95300
O611        O  0.28019301  0.30156660  0.18630181    -0.77900
O612        O  0.14693714  0.39926562  0.21094533    -0.83100
C613        C  0.22741850  0.40986505  0.23354414     0.97900
C614        C  0.12172443  0.37869574  0.22257102     1.03800
O615        O  0.20592929  0.37745904  0.24168313    -0.78800
C616        C  0.28483283  0.34297242  0.17966083     1.02100
Fe617      Fe  0.26714437  0.73467278  0.31106190     1.65800
Fe618      Fe  0.29037967  0.61921088  0.31015635     1.73200
Fe619      Fe  0.30250154  0.68436278  0.26969647     1.54400
O620        O  0.24511641  0.71227337  0.26236482    -0.82500
O621        O  0.34194305  0.59636045  0.29384046    -0.80800
O622        O  0.23726883  0.76366089  0.28668386    -0.85000
O623        O  0.32073134  0.77088905  0.30425314    -0.79900
O624        O  0.28052154  0.61691479  0.26314282    -0.81600
O625        O  0.32998479  0.64689484  0.33070879    -0.84400
C626        C  0.33473419  0.77885967  0.28725075     0.96400
C627        C  0.22920167  0.74964835  0.26941796     1.03800
O628        O  0.28683465  0.67958668  0.29694109    -1.13400
O629        O  0.23836130  0.63231663  0.32776241    -0.75800
O630        O  0.21186497  0.70053435  0.31777127    -0.79300
O631        O  0.32689946  0.75229920  0.27273209    -0.80000
C632        C  0.20736815  0.66018549  0.32543504     0.95300
O633        O  0.29610460  0.71413750  0.33725895    -0.77900
O634        O  0.25102070  0.58837785  0.29017033    -0.83100
C635        C  0.36641456  0.61456392  0.28126750     0.97900
C636        C  0.25957642  0.58545917  0.27215909     1.03800
O637        O  0.36089750  0.65646433  0.27525433    -0.78800
C638        C  0.32281633  0.68215636  0.34164442     1.02100
Fe639      Fe  0.47600938  0.73943836  0.44296593     1.65800
Fe640      Fe  0.45286048  0.62499343  0.44538080     1.73200
Fe641      Fe  0.44010374  0.69310130  0.48504619     1.54400
O642        O  0.49692876  0.72309506  0.49207748    -0.82500
O643        O  0.40065218  0.60298453  0.46180815    -0.80800
O644        O  0.50458969  0.77183451  0.46701411    -0.85000
O645        O  0.42158789  0.77468891  0.44859920    -0.79900
O646        O  0.46340566  0.62635449  0.49253475    -0.81600
O647        O  0.41302474  0.65134841  0.42476264    -0.84400
C648        C  0.40625751  0.78420863  0.46520656     0.96400
C649        C  0.51228892  0.76019964  0.48457286     1.03800
O650        O  0.45622217  0.68595667  0.45792228    -1.13400
O651        O  0.50601100  0.63680922  0.42790472    -0.75800
O652        O  0.53186671  0.70575062  0.43724676    -0.79300
O653        O  0.41421447  0.76002954  0.48041966    -0.80000
C654        C  0.53692081  0.66503637  0.42988948     0.95300
O655        O  0.44867522  0.71573936  0.41678426    -0.77900
O656        O  0.49209745  0.59655393  0.46552107    -0.83100
C657        C  0.37573696  0.62212485  0.47411426     0.97900
C658        C  0.48409043  0.59430916  0.48354207     1.03800
O659        O  0.38191402  0.66372706  0.48026916    -0.78800
C660        C  0.42020274  0.68520034  0.41317049     1.02100
Fe661      Fe  0.73350400  0.27186261  0.69022910     1.65800
Fe662      Fe  0.70571936  0.38573002  0.69161973     1.73200
Fe663      Fe  0.69384753  0.31846449  0.73157525     1.54400
O664        O  0.67187310  0.24925814  0.72737165    -0.82500
O665        O  0.74178807  0.41787044  0.71216855    -0.80800
O666        O  0.68054005  0.23377143  0.69579255    -0.85000
O667        O  0.76233439  0.24262952  0.71479127    -0.79900
O668        O  0.63449967  0.34435682  0.72598808    -0.81600
O669        O  0.76062709  0.37640105  0.67505558    -0.84400
C670        C  0.76858152  0.25553920  0.73233647     0.96400
C671        C  0.66645421  0.22286329  0.71249356     1.03800
O672        O  0.71089673  0.32529208  0.70454154    -1.13400
O673        O  0.66890377  0.35659610  0.67043223    -0.75800
O674        O  0.70628557  0.29210387  0.66361603    -0.79300
O675        O  0.75189838  0.29255049  0.73936869    -0.80000
C676        C  0.67799220  0.32230758  0.65929635     0.95300
O677        O  0.78805054  0.30821417  0.68467803    -0.77900
O678        O  0.65171192  0.40523017  0.70731824    -0.83100
C679        C  0.73231126  0.42035687  0.73006542     0.97900
C680        C  0.62747884  0.38577918  0.71978843     1.03800
O681        O  0.71342930  0.38684280  0.73885071    -0.78800
C682        C  0.79212047  0.34897588  0.67735574     1.02100
Fe683      Fe  0.52273420  0.26815080  0.55931579     1.65800
Fe684      Fe  0.54295578  0.38352326  0.55603057     1.73200
Fe685      Fe  0.55535139  0.31412615  0.51673488     1.54400
O686        O  0.58060422  0.24690386  0.52094318    -0.82500
O687        O  0.50331610  0.41042668  0.53572219    -0.80800
O688        O  0.57683721  0.23347896  0.55289385    -0.85000
O689        O  0.49223630  0.23553883  0.53559489    -0.79900
O690        O  0.61380399  0.34273867  0.52125797    -0.81600
O691        O  0.48968627  0.37256642  0.57353394    -0.84400
C692        C  0.48241468  0.24842486  0.51836148     0.96400
C693        C  0.59024191  0.22322922  0.53603953     1.03800
O694        O  0.54049725  0.32183036  0.54400372    -1.13400
O695        O  0.58340563  0.35945530  0.57677246    -0.75800
O696        O  0.55241418  0.29224156  0.58498113    -0.79300
O697        O  0.49768526  0.28521204  0.51057085    -0.80000
C698        C  0.57903139  0.32512094  0.58830456     0.95300
O699        O  0.46717681  0.30105535  0.56580402    -0.77900
O700        O  0.59501202  0.40410198  0.53943829    -0.83100
C701        C  0.51184393  0.41278962  0.51777822     0.97900
C702        C  0.62000547  0.38442990  0.52731247     1.03800
O703        O  0.53294769  0.38089224  0.50899205    -0.78800
C704        C  0.46017363  0.34220452  0.57218383     1.02100
C705        C  0.64922364  0.36284513  0.63061452    -0.10000
C706        C  0.65582452  0.32014406  0.64036144     0.06200
C707        C  0.63852499  0.27841424  0.63250405    -0.03800
C708        C  0.61346200  0.28066212  0.61564131    -0.08200
C709        C  0.60591428  0.32388644  0.60610838     0.05300
C710        C  0.62506331  0.36526245  0.61371626    -0.03200
Br711      Br  0.61883177  0.42744945  0.60282450    -0.02900
H712        H  0.66272775  0.39515207  0.63639237     0.09200
H713        H  0.59984075  0.24836523  0.60996183     0.07300
Br714      Br  0.64611525  0.21813717  0.64470849    -0.03400
C715        C  0.46340648  0.53098042  0.50607563    -0.10000
C716        C  0.49399829  0.54982055  0.49349483     0.06200
C717        C  0.52887289  0.52182147  0.48801562    -0.03800
C718        C  0.53244165  0.47583723  0.49506195    -0.08200
C719        C  0.50192133  0.45709023  0.50770595     0.05300
C720        C  0.46697108  0.48500487  0.51311923    -0.03200
Br721      Br  0.42211236  0.46167346  0.52933362    -0.02900
H722        H  0.43568805  0.55129360  0.50978932     0.09200
H723        H  0.56014443  0.45550675  0.49134251     0.07300
Br724      Br  0.57375938  0.54508248  0.47182215    -0.03400
C725        C  0.36864754  0.72541939  0.36530273    -0.10000
C726        C  0.34574711  0.68478994  0.36032874     0.06200
C727        C  0.34671461  0.64569972  0.37290720    -0.03800
C728        C  0.37089372  0.64719757  0.38983320    -0.08200
C729        C  0.39500706  0.68718031  0.39481019     0.05300
C730        C  0.39350263  0.72688948  0.38224963    -0.03200
Br731      Br  0.42401360  0.78427111  0.38705164    -0.02900
H732        H  0.36805899  0.75568836  0.35570812     0.09200
H733        H  0.37087784  0.61628886  0.39908917     0.07300
Br734      Br  0.31419484  0.58966610  0.36812273    -0.03400
C735        C  0.20300787  0.47748454  0.25314838    -0.10000
C736        C  0.23679798  0.45278164  0.24461237     0.06200
C737        C  0.27743887  0.47237078  0.24492051    -0.03800
C738        C  0.28364122  0.51657076  0.25342751    -0.08200
C739        C  0.24991121  0.54138780  0.26191535     0.05300
C740        C  0.20930693  0.52160260  0.26181193    -0.03200
Br741      Br  0.16136955  0.55490317  0.27202472    -0.02900
H742        H  0.17135615  0.46309804  0.25249496     0.09200
H743        H  0.31519806  0.53120269  0.25382503     0.07300
Br744      Br  0.32554236  0.43901337  0.23487616    -0.03400
C745        C  0.07688152  0.31452169  0.12626795    -0.10000
C746        C  0.09790923  0.31739281  0.10830995     0.06200
C747        C  0.14237026  0.31863276  0.10804880    -0.03800
C748        C  0.16502479  0.31736536  0.12558037    -0.08200
C749        C  0.14397212  0.31626711  0.14357546     0.05300
C750        C  0.09948787  0.31473117  0.14381884    -0.03200
Br751      Br  0.06818807  0.31225355  0.16775823    -0.02900
H752        H  0.04284597  0.31349480  0.12666205     0.09200
H753        H  0.19904761  0.31872499  0.12517857     0.07300
Br754      Br  0.17354654  0.32127852  0.08407098    -0.03400
C755        C  0.72251440  0.52634614  0.76368952    -0.10000
C756        C  0.75321786  0.55683617  0.75596554     0.06200
C757        C  0.77736675  0.54145749  0.73981602    -0.03800
C758        C  0.77083825  0.49635608  0.73215839    -0.08200
C759        C  0.74087788  0.46542798  0.74023910     0.05300
C760        C  0.71634465  0.48113446  0.75619827    -0.03200
Br761      Br  0.67304137  0.44419898  0.76852163    -0.02900
H762        H  0.70354724  0.53732282  0.77604809     0.09200
H763        H  0.78967854  0.48530565  0.71976840     0.07300
Br764      Br  0.82134422  0.57818902  0.72788441    -0.03400
C765        C  0.96205351  0.52040556  0.00228724    -0.10000
C766        C  0.99460700  0.54078799  0.99125092     0.06200
C767        C  0.03154967  0.51470781  0.98750177    -0.03800
C768        C  0.03579059  0.46951390  0.99526978    -0.08200
C769        C  0.00370009  0.44966126  0.00676855     0.05300
C770        C  0.96616132  0.47509302  0.00992552    -0.03200
Br771      Br  0.91877101  0.44887638  0.02361718    -0.02900
H772        H  0.93264291  0.53920194  0.00444338     0.09200
H773        H  0.06518378  0.45073675  0.99306318     0.07300
Br774      Br  0.07812989  0.53988976  0.97292881    -0.03400
C775        C  0.87570610  0.63760984  0.88669705    -0.10000
C776        C  0.89359731  0.67960694  0.89389706     0.06200
C777        C  0.88629016  0.72207823  0.88357795    -0.03800
C778        C  0.86150891  0.72164995  0.86667547    -0.08200
C779        C  0.84436563  0.67950136  0.85945139     0.05300
C780        C  0.85161933  0.63714679  0.86968578    -0.03200
Br781      Br  0.82805996  0.57763883  0.86172102    -0.02900
H782        H  0.88067770  0.60459215  0.89424521     0.09200
H783        H  0.85641066  0.75431694  0.85887156     0.07300
Br784      Br  0.90816231  0.78218075  0.89164962    -0.03400
C785        C  0.83754048  0.88013043  0.95384687    -0.10000
C786        C  0.85042079  0.91315338  0.96798377     0.06200
C787        C  0.87719144  0.89797676  0.98317057    -0.03800
C788        C  0.89323101  0.85180142  0.98286532    -0.08200
C789        C  0.88237763  0.82026848  0.96784659     0.05300
C790        C  0.85284774  0.83418509  0.95377925    -0.03200
Br791      Br  0.83137969  0.79156288  0.93439206    -0.02900
H792        H  0.81516640  0.88993835  0.94267609     0.09200
H793        H  0.91585082  0.84130758  0.99381598     0.07300
Br794      Br  0.89502140  0.93859091  0.00398552    -0.03400
C795        C  0.91221692  0.19933709  0.97843864    -0.10000
C796        C  0.90601729  0.15218884  0.98433641     0.06200
C797        C  0.92778345  0.13596752  0.00105899    -0.03800
C798        C  0.95409562  0.16660184  0.01132548    -0.08200
C799        C  0.95915367  0.21390690  0.00576737     0.05300
C800        C  0.93789737  0.23022576  0.98902589    -0.03200
Br801      Br  0.93911792  0.29496572  0.98067262    -0.02900
H802        H  0.89548457  0.21318947  0.96597501     0.09200
H803        H  0.97043130  0.15321447  0.02399615     0.07300
Br804      Br  0.92211685  0.07379447  0.01195048    -0.03400
C805        C  0.84428021  0.86975912  0.80457981    -0.10000
C806        C  0.85424432  0.83775702  0.78955813     0.06200
C807        C  0.87836201  0.85368504  0.77352409    -0.03800
C808        C  0.89275962  0.90030206  0.77317370    -0.08200
C809        C  0.88386262  0.93133807  0.78858106     0.05300
C810        C  0.85869068  0.91601178  0.80420681    -0.03200
Br811      Br  0.84252281  0.95688195  0.82536123    -0.02900
H812        H  0.82455905  0.85902965  0.81675779     0.09200
H813        H  0.91306503  0.91161815  0.76128571     0.07300
Br814      Br  0.89538327  0.81349950  0.75234911    -0.03400
C815        C  0.85395711  0.06805866  0.85973446    -0.10000
C816        C  0.89820572  0.06614853  0.86017342     0.06200
C817        C  0.91882694  0.06069745  0.87820573    -0.03800
C818        C  0.89515704  0.05832232  0.89540729    -0.08200
C819        C  0.85096434  0.06050365  0.89496228     0.05300
C820        C  0.83028800  0.06497279  0.87692225    -0.03200
Br821      Br  0.77013865  0.07125820  0.87518276    -0.02900
H822        H  0.83776167  0.07256129  0.84597416     0.09200
H823        H  0.91135386  0.05575491  0.90925523     0.07300
Br824      Br  0.97918244  0.06071846  0.88035382    -0.03400
C825        C  0.81619811  0.14877680  0.75764745    -0.10000
C826        C  0.84349924  0.16996923  0.77122651     0.06200
C827        C  0.84473351  0.22008707  0.77214403    -0.03800
C828        C  0.82007772  0.24699682  0.75940379    -0.08200
C829        C  0.79452922  0.22555664  0.74529871     0.05300
C830        C  0.79218927  0.17580351  0.74473691    -0.03200
Br831      Br  0.75594698  0.14208310  0.72716947    -0.02900
H832        H  0.81433271  0.11072997  0.75659281     0.09200
H833        H  0.82176025  0.28509149  0.76018430     0.07300
Br834      Br  0.88076694  0.25548687  0.78930750    -0.03400
C835        C  0.34402416  0.54349976  0.48152283    -0.10000
C836        C  0.34172807  0.59304816  0.48319623     0.06200
C837        C  0.31088934  0.61253783  0.49584474    -0.03800
C838        C  0.28645577  0.58286037  0.50762226    -0.08200
C839        C  0.29041556  0.53359574  0.50658267     0.05300
C840        C  0.31840619  0.51391362  0.49280648    -0.03200
Br841      Br  0.32499555  0.44694877  0.48959406    -0.02900
H842        H  0.36709689  0.52733050  0.47192233     0.09200
H843        H  0.26350491  0.59843305  0.51744137     0.07300
Br844      Br  0.29884812  0.67896437  0.49739393    -0.03400
C845        C  0.34006384  0.34256957  0.57496754    -0.10000
C846        C  0.33193294  0.39059285  0.57811678     0.06200
C847        C  0.36594668  0.42077110  0.58258756    -0.03800
C848        C  0.40734719  0.40344688  0.58203617    -0.08200
C849        C  0.41592707  0.35614724  0.57698436     0.05300
C850        C  0.38123803  0.32510891  0.57426298    -0.03200
Br851      Br  0.38610919  0.25899910  0.56809622    -0.02900
H852        H  0.31436533  0.31883316  0.57167433     0.09200
H853        H  0.43291058  0.42780287  0.58465552     0.07300
Br854      Br  0.35797309  0.48598546  0.58938452    -0.03400
C855        C  0.96134459  0.23169415  0.74870648    -0.10000
C856        C  0.99170278  0.21170386  0.76109555     0.06200
C857        C  0.02852468  0.23745221  0.76544985    -0.03800
C858        C  0.03446487  0.28218913  0.75738229    -0.08200
C859        C  0.00422479  0.30211522  0.74493515     0.05300
C860        C  0.96717622  0.27658613  0.74072226    -0.03200
Br861      Br  0.92245178  0.30236223  0.72515123    -0.02900
H862        H  0.93217086  0.21313660  0.74583187     0.09200
H863        H  0.06362554  0.30073827  0.76028795     0.07300
Br864      Br  0.07276263  0.21238644  0.78147914    -0.03400
C865        C  0.10629962  0.43742983  0.60991117    -0.10000
C866        C  0.15056338  0.43868280  0.61061345     0.06200
C867        C  0.17067200  0.44185372  0.62886703    -0.03800
C868        C  0.14650381  0.44206135  0.64599324    -0.08200
C869        C  0.10227189  0.44047834  0.64526491     0.05300
C870        C  0.08213414  0.43895651  0.62700584    -0.03200
Br871      Br  0.02190675  0.43550246  0.62470990    -0.02900
H872        H  0.09044515  0.43487142  0.59597589     0.09200
H873        H  0.16232493  0.44300884  0.65997061     0.07300
Br874      Br  0.23094836  0.44243201  0.63126991    -0.03400
C875        C  0.96178711  0.58885136  0.74685543    -0.10000
C876        C  0.95617106  0.53968907  0.74683559     0.06200
C877        C  0.92489770  0.51994856  0.75885214    -0.03800
C878        C  0.89952581  0.54926419  0.77030519    -0.08200
C879        C  0.90384085  0.59877368  0.76994140     0.05300
C880        C  0.93623640  0.61845300  0.75825408    -0.03200
Br881      Br  0.94801477  0.68493711  0.75708765    -0.02900
H882        H  0.98652397  0.60441150  0.73797387     0.09200
H883        H  0.87452660  0.53292050  0.77876755     0.07300
Br884      Br  0.91237399  0.45363764  0.75870736    -0.03400
C885        C  0.91102561  0.35395274  0.67103151    -0.10000
C886        C  0.91873133  0.40197658  0.67483643     0.06200
C887        C  0.88378162  0.43328292  0.67538475    -0.03800
C888        C  0.84274662  0.41537763  0.67453388    -0.08200
C889        C  0.83516480  0.36671832  0.67293075     0.05300
C890        C  0.86989099  0.33625881  0.66995417    -0.03200
Br891      Br  0.86360523  0.27015711  0.66445668    -0.02900
H892        H  0.93704899  0.32935902  0.66983070     0.09200
H893        H  0.81661013  0.43964111  0.67633245     0.07300
Br894      Br  0.88855208  0.50075215  0.67789372    -0.03400
C895        C  0.34463613  0.85529270  0.27043186    -0.10000
C896        C  0.35868190  0.82237684  0.28426893     0.06200
C897        C  0.39136766  0.83454844  0.29703237    -0.03800
C898        C  0.40736471  0.88017329  0.29684239    -0.08200
C899        C  0.39134934  0.91457083  0.28408020     0.05300
C900        C  0.36086033  0.90130436  0.27016747    -0.03200
Br901      Br  0.33777856  0.94486321  0.25168951    -0.02900
H902        H  0.31923167  0.84601222  0.26054424     0.09200
H903        H  0.43230209  0.88900801  0.30705139     0.07300
Br904      Br  0.41502755  0.79005763  0.31505640    -0.03400
C905        C  0.34305175  0.20662847  0.27066107    -0.10000
C906        C  0.33989168  0.15705640  0.26919188     0.06200
C907        C  0.30949004  0.13816187  0.25621847    -0.03800
C908        C  0.28531343  0.16831749  0.24451789    -0.08200
C909        C  0.28978282  0.21754785  0.24555179     0.05300
C910        C  0.31856330  0.23666321  0.25904340    -0.03200
Br911      Br  0.32862164  0.30333936  0.26101504    -0.02900
H912        H  0.36631744  0.22241797  0.28016241     0.09200
H913        H  0.26232458  0.15312045  0.23469850     0.07300
Br914      Br  0.29808062  0.07185421  0.25379315    -0.03400
C915        C  0.33742180  0.88616377  0.45144280    -0.10000
C916        C  0.34925252  0.92001519  0.46544716     0.06200
C917        C  0.37566529  0.90615921  0.48098931    -0.03800
C918        C  0.39143438  0.86006220  0.48153225    -0.08200
C919        C  0.38134889  0.82750816  0.46684236     0.05300
C920        C  0.35305471  0.84036748  0.45206166    -0.03200
Br921      Br  0.33433645  0.79664353  0.43243461    -0.02900
H922        H  0.31579418  0.89514703  0.43988653     0.09200
H923        H  0.41353653  0.85047655  0.49281812     0.07300
Br924      Br  0.39397430  0.94845758  0.50116493    -0.03400
C925        C  0.27467235  0.26973109  0.51673025    -0.10000
C926        C  0.24253282  0.29872167  0.50935375     0.06200
C927        C  0.21849351  0.28262146  0.49333380    -0.03800
C928        C  0.22631199  0.23803117  0.48555913    -0.08200
C929        C  0.25800607  0.20873001  0.49311765     0.05300
C930        C  0.28262158  0.22522242  0.50886828    -0.03200
Br931      Br  0.32845465  0.19046679  0.52021796    -0.02900
H932        H  0.29359195  0.28153485  0.52897968     0.09200
H933        H  0.20726835  0.22616889  0.47335381     0.07300
Br934      Br  0.17330023  0.31774087  0.48156626    -0.03400
C935        C  0.32437871  0.07774119  0.37522308    -0.10000
C936        C  0.34338562  0.06298587  0.39258017     0.06200
C937        C  0.38527355  0.04671253  0.39220271    -0.03800
C938        C  0.40778157  0.04564486  0.37460954    -0.08200
C939        C  0.38956642  0.06226542  0.35727126     0.05300
C940        C  0.34712820  0.07801120  0.35768176    -0.03200
Br941      Br  0.31809633  0.09992064  0.33484871    -0.02900
H942        H  0.29228218  0.09047785  0.37543208     0.09200
H943        H  0.44011521  0.03370286  0.37465770     0.07300
Br944      Br  0.41317772  0.02683260  0.41557594    -0.03400
C945        C  0.46175458  0.16936401  0.50558851    -0.10000
C946        C  0.45441264  0.21825687  0.50640201     0.06200
C947        C  0.42286427  0.23778381  0.49448599    -0.03800
C948        C  0.39925304  0.20863834  0.48217531    -0.08200
C949        C  0.40538066  0.15933344  0.48171607     0.05300
C950        C  0.43774419  0.13991833  0.49341830    -0.03200
Br951      Br  0.45182018  0.07397312  0.49316463    -0.02900
H952        H  0.48670158  0.15408906  0.51423470     0.09200
H953        H  0.37404839  0.22455514  0.47388508     0.07300
Br954      Br  0.40752342  0.30331582  0.49596194    -0.03400
C955        C  0.47205572  0.26509817  0.23666709    -0.10000
C956        C  0.50468541  0.29329729  0.24410367     0.06200
C957        C  0.53051881  0.27506401  0.25907073    -0.03800
C958        C  0.52301806  0.22979994  0.26622779    -0.08200
C959        C  0.49036004  0.20160953  0.25876853     0.05300
C960        C  0.46476775  0.21974506  0.24369990    -0.03200
Br961      Br  0.41819682  0.18625658  0.23231956    -0.02900
H962        H  0.45213368  0.27828856  0.22504732     0.09200
H963        H  0.54293851  0.21656817  0.27783489     0.07300
Br964      Br  0.57799795  0.30809222  0.26986765    -0.03400
C965        C  0.42590783  0.60664747  0.25792202    -0.10000
C966        C  0.39937211  0.58499183  0.27170164     0.06200
C967        C  0.40118161  0.53508958  0.27361709    -0.03800
C968        C  0.42806979  0.50871911  0.26157814    -0.08200
C969        C  0.45298491  0.53052069  0.24730047     0.05300
C970        C  0.45213466  0.58015471  0.24573834    -0.03200
Br971      Br  0.48680762  0.61465134  0.22773632    -0.02900
H972        H  0.42554617  0.64451935  0.25613890     0.09200
H973        H  0.42873428  0.47079374  0.26306219     0.07300
Br974      Br  0.36700390  0.49915756  0.29140509    -0.03400
C975        C  0.36116370  0.32631399  0.17427440    -0.10000
C976        C  0.32840667  0.35978089  0.17538937     0.06200
C977        C  0.33924748  0.40823050  0.17519697    -0.03800
C978        C  0.38167481  0.42169168  0.17537804    -0.08200
C979        C  0.41443043  0.38819972  0.17600553     0.05300
C980        C  0.40364291  0.33979130  0.17469804    -0.03200
Br981      Br  0.44420581  0.28935339  0.17540919    -0.02900
H982        H  0.35379569  0.28898966  0.17415888     0.09200
H983        H  0.38895781  0.45900024  0.17609075     0.07300
Br984      Br  0.29875892  0.45867450  0.17674260    -0.03400
C985        C  0.72318571  0.23178740  0.98540509    -0.10000
C986        C  0.75386948  0.20214175  0.99371475     0.06200
C987        C  0.77609875  0.21809123  0.01028998    -0.03800
C988        C  0.76756899  0.26268543  0.01794380    -0.08200
C989        C  0.73680804  0.29226331  0.00970647     0.05300
C990        C  0.71425248  0.27621128  0.99324698    -0.03200
Br991      Br  0.66908581  0.31100622  0.98131244    -0.02900
H992        H  0.70576829  0.22027929  0.97268933     0.09200
H993        H  0.78504677  0.27413056  0.03065539     0.07300
Br994      Br  0.81975159  0.18259089  0.02304433    -0.03400
C995        C  0.57721885  0.43910523  0.12720616    -0.10000
C996        C  0.59852419  0.43557120  0.14503707     0.06200
C997        C  0.64299171  0.43330835  0.14509002    -0.03800
C998        C  0.66533707  0.43511618  0.12749765    -0.08200
C999        C  0.64397237  0.43650010  0.10965169     0.05300
C1000       C  0.59951451  0.43836752  0.10957147    -0.03200
Br1001     Br  0.56775649  0.43918102  0.08577890    -0.02900
H1002       H  0.54321161  0.44018334  0.12696046     0.09200
H1003       H  0.69929171  0.43292022  0.12771004     0.07300
Br1004     Br  0.67485825  0.42625751  0.16867596    -0.03400
C1005       C  0.81999027  0.60468204  0.99752263    -0.10000
C1006       C  0.84497514  0.58328491  0.98299719     0.06200
C1007       C  0.84113251  0.53376927  0.98023990    -0.03800
C1008       C  0.81453818  0.50736464  0.99237678    -0.08200
C1009       C  0.79123668  0.52873867  0.00739811     0.05300
C1010       C  0.79342465  0.57826532  0.00956540    -0.03200
Br1011     Br  0.75956050  0.61290707  0.02795092    -0.02900
H1012       H  0.82156432  0.64250512  0.99989287     0.09200
H1013       H  0.81252709  0.46952312  0.99020439     0.07300
Br1014     Br  0.87113111  0.49865724  0.96062527    -0.03400
C1015       C  0.83538461  0.33616377  0.07429283    -0.10000
C1016       C  0.82707307  0.38423185  0.07755678     0.06200
C1017       C  0.86134200  0.41438828  0.08175693    -0.03800
C1018       C  0.90274284  0.39719304  0.08092232    -0.08200
C1019       C  0.91148722  0.34994623  0.07592908     0.05300
C1020       C  0.87678595  0.31877858  0.07344272    -0.03200
Br1021     Br  0.88228229  0.25242534  0.06796615    -0.02900
H1022       H  0.80965735  0.31230788  0.07121113     0.09200
H1023       H  0.92825091  0.42170447  0.08341211     0.07300
Br1024     Br  0.85409894  0.47966509  0.08861576    -0.03400
C1025       C  0.18273352  0.39315380  0.00842179    -0.10000
C1026       C  0.15205349  0.41505344  0.02023154     0.06200
C1027       C  0.14927485  0.46517753  0.01984749    -0.03800
C1028       C  0.17558847  0.49121201  0.00741956    -0.08200
C1029       C  0.20441755  0.46873890  0.99497612     0.05300
C1030       C  0.20854639  0.41931215  0.99592065    -0.03200
Br1031     Br  0.25021601  0.38561387  0.98109657    -0.02900
H1032       H  0.18612836  0.35512567  0.00849171     0.09200
H1033       H  0.17282714  0.52930735  0.00713221     0.07300
Br1034     Br  0.10943344  0.50138706  0.03487743    -0.03400
C1035       C  0.13409663  0.58263668  0.91969360    -0.10000
C1036       C  0.16630617  0.61544295  0.92347128     0.06200
C1037       C  0.15535574  0.66370505  0.92493760    -0.03800
C1038       C  0.11286498  0.67714635  0.92468021    -0.08200
C1039       C  0.08027050  0.64364601  0.92294578     0.05300
C1040       C  0.09161128  0.59606060  0.91926019    -0.03200
Br1041     Br  0.05163691  0.54621982  0.91480458    -0.02900
H1042       H  0.14184508  0.54561705  0.91793076     0.09200
H1043       H  0.10534302  0.71403498  0.92699852     0.07300
Br1044     Br  0.19573176  0.71307703  0.92932346    -0.03400
C1045       C  0.41205175  0.55130424  0.87318939    -0.10000
C1046       C  0.39239673  0.56393676  0.85561623     0.06200
C1047       C  0.34859897  0.57379053  0.85579778    -0.03800
C1048       C  0.32591541  0.57257468  0.87337179    -0.08200
C1049       C  0.34620741  0.56254061  0.89101239     0.05300
C1050       C  0.38945726  0.55119667  0.89079770    -0.03200
Br1051     Br  0.41895239  0.53566790  0.91431542    -0.02900
H1052       H  0.44532559  0.54344618  0.87337677     0.09200
H1053       H  0.29276381  0.58107750  0.87335511     0.07300
Br1054     Br  0.31772227  0.58861148  0.83252315    -0.03400
C1055       C  0.53539789  0.42397107  0.75214134    -0.10000
C1056       C  0.54252501  0.47279014  0.75346894     0.06200
C1057       C  0.57502817  0.49290079  0.74225538    -0.03800
C1058       C  0.60005848  0.46422007  0.73023772    -0.08200
C1059       C  0.59401886  0.41493260  0.72930223     0.05300
C1060       C  0.56054682  0.39508457  0.74020852    -0.03200
Br1061     Br  0.54656179  0.32919587  0.73923081    -0.02900
H1062       H  0.50986805  0.40827628  0.76030333     0.09200
H1063       H  0.62604436  0.48036509  0.72255231     0.07300
Br1064     Br  0.58949923  0.55846531  0.74441100    -0.03400
C1065       C  0.58586140  0.66164439  0.82594328    -0.10000
C1066       C  0.57831916  0.61281285  0.82607445     0.06200
C1067       C  0.61308520  0.58196455  0.82826040    -0.03800
C1068       C  0.65411846  0.60003928  0.82840495    -0.08200
C1069       C  0.66191595  0.64864860  0.82628202     0.05300
C1070       C  0.62687821  0.67978984  0.82595823    -0.03200
Br1071     Br  0.63150219  0.74740391  0.82460096    -0.02900
H1072       H  0.55976371  0.68606370  0.82456277     0.09200
H1073       H  0.68012558  0.57535121  0.82914695     0.07300
Br1074     Br  0.60749615  0.51464792  0.83064535    -0.03400
C1075       C  0.60479722  0.14802073  0.51903239    -0.10000
C1076       C  0.61481533  0.17981988  0.53404743     0.06200
C1077       C  0.64289418  0.16609449  0.54878859    -0.03800
C1078       C  0.65801028  0.12021742  0.54909301    -0.08200
C1079       C  0.64577500  0.08696091  0.53493954     0.05300
C1080       C  0.62008804  0.10168485  0.51931570    -0.03200
Br1081     Br  0.60212010  0.06006162  0.49885532    -0.02900
H1082       H  0.58287926  0.15835760  0.50766511     0.09200
H1083       H  0.67942448  0.11050090  0.56073940     0.07300
Br1084     Br  0.66154945  0.20820478  0.56905172    -0.03400
C1085       C  0.56785056  0.86743485  0.50641750    -0.10000
C1086       C  0.59095628  0.84695745  0.52174583     0.06200
C1087       C  0.58587696  0.79794014  0.52520046    -0.03800
C1088       C  0.56031300  0.77088646  0.51289232    -0.08200
C1089       C  0.53917266  0.79100672  0.49697216     0.05300
C1090       C  0.54235453  0.84029387  0.49411954    -0.03200
Br1091     Br  0.51212747  0.87375400  0.47418818    -0.02900
H1092       H  0.57051268  0.90487075  0.50348384     0.09200
H1093       H  0.55758347  0.73337723  0.51564340     0.07300
Br1094     Br  0.61310508  0.76414221  0.54594371    -0.03400
C1095       C  0.60006351  0.11861919  0.73004129    -0.10000
C1096       C  0.60947163  0.08529642  0.71549599     0.06200
C1097       C  0.63895948  0.09665593  0.70096535    -0.03800
C1098       C  0.65676929  0.14144002  0.70050332    -0.08200
C1099       C  0.64607410  0.17603017  0.71441265     0.05300
C1100       C  0.61802322  0.16384880  0.72962970    -0.03200
Br1101     Br  0.60046034  0.20764270  0.74941221    -0.02900
H1102       H  0.57709388  0.11025234  0.74119630     0.09200
H1103       H  0.67942984  0.14902828  0.68911713     0.07300
Br1104     Br  0.65688594  0.05204574  0.68155657    -0.03400
C1105       C  0.47228503  0.77497741  0.73563445    -0.10000
C1106       C  0.50616928  0.80198678  0.74263769     0.06200
C1107       C  0.53243341  0.78256502  0.75717164    -0.03800
C1108       C  0.52421151  0.73741586  0.76438117    -0.08200
C1109       C  0.49036985  0.71036341  0.75734780     0.05300
C1110       C  0.46424360  0.72969110  0.74272262    -0.03200
Br1111     Br  0.41593500  0.69784655  0.73217330    -0.02900
H1112       H  0.45199298  0.78907373  0.72438752     0.09200
H1113       H  0.54447774  0.72335280  0.77564510     0.07300
Br1114     Br  0.58149328  0.81384734  0.76718223    -0.03400
C1115       C  0.64166269  0.95753343  0.64436216    -0.10000
C1116       C  0.59783677  0.95080507  0.64347930     0.06200
C1117       C  0.57824205  0.94787990  0.62514166    -0.03800
C1118       C  0.60286679  0.94712914  0.60818818    -0.08200
C1119       C  0.64692618  0.95202033  0.60904327     0.05300
C1120       C  0.66604879  0.96001908  0.62731571    -0.03200
Br1121     Br  0.72524684  0.97247597  0.63001234    -0.02900
H1122       H  0.65701204  0.96062563  0.65838319     0.09200
H1123       H  0.58752133  0.94224142  0.59423214     0.07300
Br1124     Br  0.51825009  0.94210668  0.62254712    -0.03400
C1125       C  0.67673871  0.87246362  0.74882703    -0.10000
C1126       C  0.65610601  0.85278206  0.73251642     0.06200
C1127       C  0.66308214  0.80433394  0.72839714    -0.03800
C1128       C  0.68786717  0.77694469  0.74087964    -0.08200
C1129       C  0.70656072  0.79604025  0.75768093     0.05300
C1130       C  0.70156685  0.84489506  0.76132421    -0.03200
Br1131     Br  0.72832641  0.87705551  0.78268357    -0.02900
H1132       H  0.67241817  0.90937833  0.75239410     0.09200
H1133       H  0.69194388  0.73988564  0.73750304     0.07300
Br1134     Br  0.63931045  0.77155821  0.70646886    -0.03400
C1135       C  0.78729467  0.72971201  0.50613844    -0.10000
C1136       C  0.75602267  0.70845873  0.49460139     0.06200
C1137       C  0.71717477  0.73177466  0.49205971    -0.03800
C1138       C  0.71066072  0.77608105  0.50049177    -0.08200
C1139       C  0.74202824  0.79766902  0.51181872     0.05300
C1140       C  0.78057844  0.77391634  0.51477789    -0.03200
Br1141     Br  0.82602289  0.80150616  0.52930769    -0.02900
H1142       H  0.81770910  0.71270501  0.50782912     0.09200
H1143       H  0.68022798  0.79313352  0.49871284     0.07300
Br1144     Br  0.67093645  0.70340591  0.47836498    -0.03400
C1145       C  0.70754902  0.42508850  0.49331913    -0.10000
C1146       C  0.70421739  0.47426532  0.49532415     0.06200
C1147       C  0.67719035  0.49301915  0.50964862    -0.03800
C1148       C  0.65235239  0.46272767  0.52087012    -0.08200
C1149       C  0.65391020  0.41336925  0.51828171     0.05300
C1150       C  0.68335527  0.39458210  0.50478033    -0.03200
Br1151     Br  0.69332087  0.32810907  0.50123336    -0.02900
H1152       H  0.72955196  0.41025085  0.48292083     0.09200
H1153       H  0.63026797  0.47829695  0.53102093     0.07300
Br1154     Br  0.67020264  0.55972492  0.51351969    -0.03400
C1155       C  0.63363621  0.58834924  0.42089642    -0.10000
C1156       C  0.66617328  0.62107778  0.42406391     0.06200
C1157       C  0.65572648  0.66956201  0.42493624    -0.03800
C1158       C  0.61331324  0.68325584  0.42543778    -0.08200
C1159       C  0.58047773  0.64986016  0.42444950     0.05300
C1160       C  0.59129068  0.60217153  0.42070905    -0.03200
Br1161     Br  0.55081977  0.55291428  0.41616174    -0.02900
H1162       H  0.64105016  0.55120137  0.41932575     0.09200
H1163       H  0.60611781  0.72030911  0.42749156     0.07300
Br1164     Br  0.69694440  0.71911005  0.42690603    -0.03400
C1165       C  0.91664617  0.56249161  0.37761718    -0.10000
C1166       C  0.89647859  0.56667308  0.35953689     0.06200
C1167       C  0.85211946  0.56978021  0.35880717    -0.03800
C1168       C  0.82872487  0.56937214  0.37605366    -0.08200
C1169       C  0.84901116  0.56781964  0.39412979     0.05300
C1170       C  0.89327964  0.56384127  0.39490610    -0.03200
Br1171     Br  0.92313405  0.56010272  0.41918404    -0.02900
H1172       H  0.95062449  0.56014758  0.37831711     0.09200
H1173       H  0.79480389  0.57247188  0.37538039     0.07300
Br1174     Br  0.82181319  0.57534408  0.33471737    -0.03400
C1175       C  0.05650407  0.48255720  0.24097510    -0.10000
C1176       C  0.03885140  0.46360467  0.25804060     0.06200
C1177       C  0.04442537  0.41492515  0.26179200    -0.03800
C1178       C  0.06895897  0.38740855  0.24918753    -0.08200
C1179       C  0.08851306  0.40689529  0.23263326     0.05300
C1180       C  0.08080175  0.45501169  0.22829111    -0.03200
Br1181     Br  0.10190502  0.48644501  0.20546021    -0.02900
H1182       H  0.05174351  0.51943461  0.23748180     0.09200
H1183       H  0.07384932  0.35065989  0.25284096     0.07300
Br1184     Br  0.01888212  0.38259705  0.28340805    -0.03400
C1185       C  0.15754425  0.59392915  0.32911351    -0.10000
C1186       C  0.16460697  0.64278601  0.33023766     0.06200
C1187       C  0.12983772  0.67305824  0.33323036    -0.03800
C1188       C  0.08896051  0.65457730  0.33317779    -0.08200
C1189       C  0.08170588  0.60620476  0.32990396     0.05300
C1190       C  0.11684624  0.57541094  0.32883567    -0.03200
Br1191     Br  0.11287849  0.50792739  0.32593547    -0.02900
H1192       H  0.18371194  0.56993658  0.32709869     0.09200
H1193       H  0.06276900  0.67877394  0.33449680     0.07300
Br1194     Br  0.13553606  0.73993933  0.33695547    -0.03400
C1195       C  0.15512494  0.13416476  0.20208968    -0.10000
C1196       C  0.14130613  0.16821502  0.21556073     0.06200
C1197       C  0.11335297  0.15459474  0.23058376    -0.03800
C1198       C  0.09822499  0.10815319  0.23111402    -0.08200
C1199       C  0.11062782  0.07516097  0.21691719     0.05300
C1200       C  0.14018606  0.08820351  0.20267772    -0.03200
Br1201     Br  0.16162673  0.04470860  0.18366626    -0.02900
H1202       H  0.17794119  0.14319574  0.19094298     0.09200
H1203       H  0.07496086  0.09852810  0.24197580     0.07300
Br1204     Br  0.09221226  0.19796814  0.24979962    -0.03400
C1205       C  0.96744621  0.71928537  0.24649064    -0.10000
C1206       C  0.99642448  0.70281927  0.26036644     0.06200
C1207       C  0.03118361  0.73143420  0.26538153    -0.03800
C1208       C  0.03573598  0.77591159  0.25685078    -0.08200
C1209       C  0.00641016  0.79259694  0.24314894     0.05300
C1210       C  0.97208033  0.76359551  0.23790238    -0.03200
Br1211     Br  0.92911801  0.78307496  0.21989512    -0.02900
H1212       H  0.94003401  0.69840700  0.24282518     0.09200
H1213       H  0.06312322  0.79682698  0.26046311     0.07300
Br1214     Br  0.07466117  0.71099302  0.28294549    -0.03400
C1215       C  0.15302083  0.79105320  0.23030989    -0.10000
C1216       C  0.15550018  0.84048557  0.23227554     0.06200
C1217       C  0.18431502  0.85938742  0.24598096    -0.03800
C1218       C  0.20725283  0.82903378  0.25806929    -0.08200
C1219       C  0.20296528  0.77978291  0.25668258     0.05300
C1220       C  0.17620066  0.76086899  0.24229044    -0.03200
Br1221     Br  0.16694894  0.69426306  0.23924498    -0.02900
H1222       H  0.13117322  0.77537503  0.22010266     0.09200
H1223       H  0.22900206  0.84408200  0.26849348     0.07300
Br1224     Br  0.19481934  0.92586393  0.24904395    -0.03400
C1225       C  0.15952035  0.11279225  0.02232790    -0.10000
C1226       C  0.14342764  0.07764270  0.03470426     0.06200
C1227       C  0.11014431  0.08872182  0.04739344    -0.03800
C1228       C  0.09416969  0.13431996  0.04804003    -0.08200
C1229       C  0.11102123  0.17029296  0.03635472     0.05300
C1230       C  0.14369615  0.15911454  0.02309933    -0.03200
Br1231     Br  0.17026015  0.20598081  0.00709912    -0.02900
H1232       H  0.18586963  0.10480694  0.01277731     0.09200
H1233       H  0.06814196  0.14162773  0.05787368     0.07300
Br1234     Br  0.08519071  0.04288531  0.06427334    -0.03400
C1235       C  0.22626509  0.73056579  0.98552329    -0.10000
C1236       C  0.25680107  0.70046307  0.99355800     0.06200
C1237       C  0.27854551  0.71508032  0.01048177    -0.03800
C1238       C  0.27075129  0.75979225  0.01825322    -0.08200
C1239       C  0.24114842  0.79048355  0.00978755     0.05300
C1240       C  0.21833408  0.77506027  0.99330579    -0.03200
Br1241     Br  0.17466317  0.81103090  0.98078188    -0.02900
H1242       H  0.20856301  0.71966965  0.97283360     0.09200
H1243       H  0.28801916  0.77055074  0.03110729     0.07300
Br1244     Br  0.31990792  0.67731031  0.02373025    -0.03400
C1245       C  0.16812391  0.93593530  0.12599432    -0.10000
C1246       C  0.14652751  0.93644500  0.10815617     0.06200
C1247       C  0.10199036  0.93585869  0.10835204    -0.03800
C1248       C  0.07997501  0.93734379  0.12607825    -0.08200
C1249       C  0.10147519  0.93565114  0.14389421     0.05300
C1250       C  0.14601875  0.93373477  0.14372383    -0.03200
Br1251     Br  0.17824151  0.92599642  0.16715587    -0.02900
H1252       H  0.20213042  0.93451377  0.12610592     0.09200
H1253       H  0.04594905  0.93709825  0.12593968     0.07300
Br1254     Br  0.06941399  0.93047906  0.08492973    -0.03400
C1255       C  0.09487813  0.79202603  0.02010629    -0.10000
C1256       C  0.09251873  0.84153329  0.01823380     0.06200
C1257       C  0.06356433  0.86043576  0.00462053    -0.03800
C1258       C  0.03905644  0.83008024  0.99312700    -0.08200
C1259       C  0.04236887  0.78078091  0.99477609     0.05300
C1260       C  0.07061142  0.76185605  0.00852643    -0.03200
Br1261     Br  0.08048973  0.69519839  0.01101020    -0.02900
H1262       H  0.11742906  0.77617827  0.02999886     0.09200
H1263       H  0.01678658  0.84525858  0.98291150     0.07300
Br1264     Br  0.05508315  0.92697862  0.00087953    -0.03400
C1265       C  0.09925933  0.64203171  0.55649169    -0.10000
C1266       C  0.10361334  0.67125291  0.54002156     0.06200
C1267       C  0.12422106  0.65276711  0.52332559    -0.03800
C1268       C  0.13980125  0.60650632  0.52359761    -0.08200
C1269       C  0.13580901  0.57814853  0.54023496     0.05300
C1270       C  0.11486142  0.59621209  0.55673358    -0.03200
Br1271     Br  0.10541899  0.55988536  0.58001146    -0.02900
H1272       H  0.08300757  0.65448948  0.56945767     0.09200
H1273       H  0.15682992  0.59329417  0.51096542     0.07300
Br1274     Br  0.13406211  0.68822027  0.49991881    -0.03400
C1275       C  0.15316504  0.96046765  0.52310231    -0.10000
C1276       C  0.15540407  0.91095067  0.52101607     0.06200
C1277       C  0.18453073  0.89208736  0.50740607    -0.03800
C1278       C  0.20809903  0.92247496  0.49557558    -0.08200
C1279       C  0.20407151  0.97172803  0.49706870     0.05300
C1280       C  0.17689786  0.99068316  0.51131686    -0.03200
Br1281     Br  0.16769690  0.05737271  0.51417652    -0.02900
H1282       H  0.13102423  0.97625044  0.53324615     0.09200
H1283       H  0.23004977  0.90740221  0.48515208     0.07300
Br1284     Br  0.19432799  0.82560010  0.50398044    -0.03400
C1285       C  0.92616763  0.64095137  0.49762601    -0.10000
C1286       C  0.90776406  0.65967462  0.48069898     0.06200
C1287       C  0.91745498  0.70676905  0.47546535    -0.03800
C1288       C  0.94183203  0.73472762  0.48790332    -0.08200
C1289       C  0.95747176  0.71697695  0.50556619     0.05300
C1290       C  0.95077801  0.66880645  0.50997501    -0.03200
Br1291     Br  0.97489633  0.63768776  0.53221332    -0.02900
H1292       H  0.91999086  0.60480267  0.50184220     0.09200
H1293       H  0.94797435  0.77098222  0.48383356     0.07300
Br1294     Br  0.89879866  0.73593810  0.45170758    -0.03400
C1295       C  0.88174054  0.83758400  0.58051511    -0.10000
C1296       C  0.91479338  0.86943539  0.57700838     0.06200
C1297       C  0.90543536  0.91815041  0.57600378    -0.03800
C1298       C  0.86351042  0.93317021  0.57663243    -0.08200
C1299       C  0.83003686  0.90081590  0.57820730     0.05300
C1300       C  0.83977243  0.85263764  0.58130372    -0.03200
Br1301     Br  0.79814157  0.80427843  0.58524410    -0.02900
H1302       H  0.88840306  0.80021024  0.58183392     0.09200
H1303       H  0.85707137  0.97043131  0.57471871     0.16900
Br1304     Br  0.94714337  0.96620403  0.57162309    -0.03400
C1305       C  0.15691751  0.64399852  0.72850355    -0.10000
C1306       C  0.13737579  0.67881896  0.71714266     0.06200
C1307       C  0.10017638  0.66846083  0.70707182    -0.03800
C1308       C  0.08438185  0.62269163  0.70743580    -0.08200
C1309       C  0.10522682  0.58682269  0.71779121     0.05300
C1310       C  0.14107045  0.59798950  0.72890275    -0.03200
Br1311     Br  0.17161852  0.55146978  0.74328233    -0.02900
H1312       H  0.18573829  0.65207159  0.73630563     0.09200
H1313       H  0.05590346  0.61493077  0.69938586     0.07300
Br1314     Br  0.06987998  0.71585352  0.69287774    -0.03400
C1315       C  0.16014810  0.80569952  0.62600849    -0.10000
C1316       C  0.14064837  0.81835609  0.64364326     0.06200
C1317       C  0.09696016  0.82865630  0.64373839    -0.03800
C1318       C  0.07402490  0.82691522  0.62636979    -0.08200
C1319       C  0.09408057  0.81653614  0.60871081     0.05300
C1320       C  0.13737067  0.80558994  0.60855918    -0.03200
Br1321     Br  0.16664788  0.79112869  0.58477107    -0.02900
H1322       H  0.19359746  0.79792453  0.62565678     0.09200
H1323       H  0.04072806  0.83565499  0.62652705     0.07300
Br1324     Br  0.06667537  0.84551401  0.66701283    -0.03400
C1325       C  0.06707114  0.89392068  0.74783829    -0.10000
C1326       C  0.08537200  0.91244136  0.73080161     0.06200
C1327       C  0.07546484  0.95949128  0.72559693    -0.03800
C1328       C  0.05149657  0.98772895  0.73822282    -0.08200
C1329       C  0.03592619  0.97015976  0.75597817     0.05300
C1330       C  0.04252720  0.92184781  0.76028343    -0.03200
Br1331     Br  0.01837163  0.89034143  0.78245730    -0.02900
H1332       H  0.07316550  0.85776509  0.75204366     0.09200
H1333       H  0.04534031  0.02394493  0.73412884     0.07300
Br1334     Br  0.09264246  0.98788055  0.70145038    -0.03400
C1335       C  0.28752882  0.67764154  0.74276268    -0.10000
C1336       C  0.28995037  0.72675138  0.74520647     0.06200
C1337       C  0.31608562  0.74495754  0.76001401    -0.03800
C1338       C  0.34033703  0.71415257  0.77137817    -0.08200
C1339       C  0.33946260  0.66483782  0.76838383     0.05300
C1340       C  0.31135488  0.64673799  0.75418696    -0.03200
Br1341     Br  0.30312257  0.58052991  0.74934633    -0.02900
H1342       H  0.26641089  0.66289789  0.73186198     0.09200
H1343       H  0.36177911  0.72940832  0.78199056     0.07300
Br1344     Br  0.32293235  0.81155556  0.76429278    -0.03400
C1345       C  0.38168856  0.92976906  0.67282700    -0.10000
C1346       C  0.41459200  0.89665257  0.67471689     0.06200
C1347       C  0.40380316  0.84817103  0.67453042    -0.03800
C1348       C  0.36128498  0.83443062  0.67419168    -0.08200
C1349       C  0.32820384  0.86769600  0.67403683     0.05300
C1350       C  0.33914944  0.91605537  0.67241034    -0.03200
Br1351     Br  0.29849207  0.96629993  0.67098159    -0.02900
H1352       H  0.38893919  0.96711954  0.67250809     0.09200
H1353       H  0.35414300  0.79711351  0.67505149     0.07300
Br1354     Br  0.44457407  0.79824491  0.67654459    -0.03400
C1355       C  0.34583784  0.38470877  0.94565554    -0.10000
C1356       C  0.35416568  0.41659085  0.96096878     0.06200
C1357       C  0.37857862  0.40082838  0.97693182    -0.03800
C1358       C  0.39320603  0.35423771  0.97732414    -0.08200
C1359       C  0.38502931  0.32305799  0.96189903     0.05300
C1360       C  0.36111443  0.33867531  0.94592769    -0.03200
Br1361     Br  0.34758089  0.29856666  0.92417176    -0.02900
H1362       H  0.32675201  0.39528134  0.93328433     0.09200
H1363       H  0.41307242  0.34296711  0.98935555     0.07300
Br1364     Br  0.39589953  0.44101161  0.99801420    -0.03400
C1365       C  0.53173056  0.33093108  0.99651181    -0.10000
C1366       C  0.53433391  0.28168819  0.99856216     0.06200
C1367       C  0.56023063  0.26296018  0.01330144    -0.03800
C1368       C  0.58491011  0.29317938  0.02470569    -0.08200
C1369       C  0.58456544  0.34250399  0.02188595     0.05300
C1370       C  0.55598121  0.36134153  0.00809402    -0.03200
Br1371     Br  0.54771444  0.42786983  0.00421921    -0.02900
H1372       H  0.51059895  0.34590850  0.98582529     0.09200
H1373       H  0.60623908  0.27745473  0.03509878     0.07300
Br1374     Br  0.56643219  0.19625437  0.01742183    -0.03400
C1375       C  0.66276779  0.15555152  0.92586680    -0.10000
C1376       C  0.67018627  0.10680449  0.92456434     0.06200
C1377       C  0.63554168  0.07624165  0.92183744    -0.03800
C1378       C  0.59454842  0.09412275  0.92264210    -0.08200
C1379       C  0.58686897  0.14227949  0.92617332     0.05300
C1380       C  0.62174999  0.17354678  0.92673325    -0.03200
Br1381     Br  0.61687389  0.24091366  0.92947243    -0.02900
H1382       H  0.68887876  0.17967402  0.92761426     0.09200
H1383       H  0.56861392  0.06954199  0.92156095     0.07300
Br1384     Br  0.64149894  0.00948032  0.91755285    -0.03400
C1385       C  0.28955461  0.07397529  0.00460754    -0.10000
C1386       C  0.29683963  0.02517802  0.00529913     0.06200
C1387       C  0.32614911  0.00506513  0.99223787    -0.03800
C1388       C  0.34950264  0.03421560  0.97979918    -0.08200
C1389       C  0.34359987  0.08358355  0.97964128     0.05300
C1390       C  0.31176626  0.10301362  0.99171524    -0.03200
Br1391     Br  0.29566113  0.16842068  0.99113153    -0.02900
H1392       H  0.26559398  0.08952626  0.01384654     0.09200
H1393       H  0.37358120  0.01812218  0.97078268     0.07300
Br1394     Br  0.33718514  0.93839731  0.99138537    -0.03400
C1395       C  0.34267148  0.36909148  0.80240085    -0.10000
C1396       C  0.35055369  0.33575154  0.78763639     0.06200
C1397       C  0.37262811  0.35046024  0.77072560    -0.03800
C1398       C  0.38807642  0.39677310  0.76954450    -0.08200
C1399       C  0.38199064  0.42881620  0.78491086     0.05300
C1400       C  0.35790057  0.41494663  0.80116765    -0.03200
Br1401     Br  0.34488516  0.45695457  0.82239804    -0.02900
H1402       H  0.32442741  0.35965177  0.81515816     0.09200
H1403       H  0.40705473  0.40689381  0.75708348     0.07300
Br1404     Br  0.38540440  0.30913260  0.74927742    -0.03400
C1405       C  0.26748800  0.99169059  0.73550640    -0.10000
C1406       C  0.23550605  0.96248204  0.74281254     0.06200
C1407       C  0.21154551  0.97787835  0.75901702    -0.03800
C1408       C  0.22069355  0.02111700  0.76768982    -0.08200
C1409       C  0.25306252  0.05007320  0.76055426     0.05300
C1410       C  0.27644057  0.03508187  0.74407420    -0.03200
Br1411     Br  0.32226138  0.06990952  0.73264964    -0.02900
H1412       H  0.28590087  0.98067963  0.72294985     0.09200
H1413       H  0.20218750  0.03217178  0.78021515     0.07300
Br1414     Br  0.16445702  0.94385592  0.76970978    -0.03400
C1415       C  0.39364002  0.19298516  0.85881906    -0.10000
C1416       C  0.34965225  0.18936940  0.86076867     0.06200
C1417       C  0.33199917  0.18502623  0.87949223    -0.03800
C1418       C  0.35841997  0.18193538  0.89576877    -0.08200
C1419       C  0.40249901  0.18456426  0.89382650     0.05300
C1420       C  0.42004941  0.19151482  0.87517524    -0.03200
Br1421     Br  0.47977003  0.19577454  0.87105581    -0.02900
H1422       H  0.40754422  0.19620294  0.84444942     0.09200
H1423       H  0.34445683  0.17711350  0.91004828     0.07300
Br1424     Br  0.27227614  0.18015383  0.88344403    -0.03400
C1425       C  0.20628864  0.33330296  0.76093388    -0.10000
C1426       C  0.20346964  0.28424928  0.75865414     0.06200
C1427       C  0.17805987  0.26595307  0.74358915    -0.03800
C1428       C  0.15457712  0.29666762  0.73190153    -0.08200
C1429       C  0.15580190  0.34597377  0.73469519     0.05300
C1430       C  0.18341162  0.36410154  0.74909914    -0.03200
Br1431     Br  0.19270920  0.43005185  0.75364847    -0.02900
H1432       H  0.22714359  0.34802514  0.77190979     0.09200
H1433       H  0.13371733  0.28138605  0.72107748     0.07300
Br1434     Br  0.17154140  0.19942482  0.73906966    -0.03400
C1435       C  0.15496913  0.09804874  0.83254012    -0.10000
C1436       C  0.16339513  0.14665241  0.83115958     0.06200
C1437       C  0.12890640  0.17848325  0.83186095    -0.03800
C1438       C  0.08758817  0.16124018  0.83146229    -0.08200
C1439       C  0.07941297  0.11261668  0.83039413     0.05300
C1440       C  0.11362063  0.08087565  0.83222441    -0.03200
Br1441     Br  0.10662716  0.01358662  0.83389178    -0.02900
H1442       H  0.18060983  0.07288854  0.83267849     0.09200
H1443       H  0.06188855  0.18625322  0.83068989     0.07300
Br1444     Br  0.13505639  0.24598889  0.83262151    -0.03400
C1445       C  0.43082448  0.01832144  0.76202035    -0.10000
C1446       C  0.45205811  0.03968127  0.74641977     0.06200
C1447       C  0.44889530  0.08909490  0.74410778    -0.03800
C1448       C  0.42433393  0.11557957  0.75702680    -0.08200
C1449       C  0.40170147  0.09419614  0.77229187     0.05300
C1450       C  0.40566727  0.04463784  0.77480547    -0.03200
Br1451     Br  0.37731213  0.00902894  0.79474173    -0.02900
H1452       H  0.43326476  0.98057399  0.76413736     0.09200
H1453       H  0.42195754  0.15322309  0.75461412     0.07300
Br1454     Br  0.47794275  0.12362461  0.72407718    -0.03400
C1455       C  0.65520137  0.63439040  0.20134353    -0.10000
C1456       C  0.64696514  0.66685968  0.21644766     0.06200
C1457       C  0.62190482  0.65181319  0.23237362    -0.03800
C1458       C  0.60420140  0.60631696  0.23223636    -0.08200
C1459       C  0.61095888  0.57530393  0.21651702     0.05300
C1460       C  0.63769357  0.58941099  0.20127084    -0.03200
Br1461     Br  0.65256916  0.54842208  0.18006542    -0.02900
H1462       H  0.67566253  0.64381226  0.18930330     0.09200
H1463       H  0.58357428  0.59587676  0.24407867     0.07300
Br1464     Br  0.60883123  0.69150082  0.25427370    -0.03400
C1465       C  0.53692833  0.91546359  0.25678198    -0.10000
C1466       C  0.54133141  0.96473488  0.25645091     0.06200
C1467       C  0.57076536  0.98496691  0.24353845    -0.03800
C1468       C  0.59549246  0.95590518  0.23161747    -0.08200
C1469       C  0.59226446  0.90629889  0.23232237     0.05300
C1470       C  0.56162234  0.88625439  0.24485125    -0.03200
Br1471     Br  0.55069430  0.81965657  0.24620250    -0.02900
H1472       H  0.51335679  0.89939618  0.26625566     0.09200
H1473       H  0.61931961  0.97258153  0.22246186     0.07300
Br1474     Br  0.58145661  0.05170340  0.24282498    -0.03400
C1475       C  0.80280341  0.73124642  0.26608325    -0.10000
C1476       C  0.80071908  0.72323948  0.24578211     0.06200
C1477       C  0.82506357  0.68598341  0.23780638    -0.03800
C1478       C  0.84761333  0.65606822  0.25008037    -0.08200
C1479       C  0.84893854  0.66346725  0.27027345     0.05300
C1480       C  0.82732269  0.70244206  0.27822912    -0.03200
Br1481     Br  0.82946712  0.71735064  0.30551049    -0.02900
H1482       H  0.78510507  0.75980872  0.27264514     0.09200
H1483       H  0.86614981  0.62800155  0.24359535     0.07300
Br1484     Br  0.83212002  0.67477641  0.21034430    -0.03400
C1485       C  0.84109117  0.90904880  0.17147529    -0.10000
C1486       C  0.83237239  0.86044874  0.17212254     0.06200
C1487       C  0.86644797  0.82860291  0.16972010    -0.03800
C1488       C  0.90805818  0.84520998  0.17020414    -0.08200
C1489       C  0.91685223  0.89354753  0.17238750     0.05300
C1490       C  0.88271730  0.92575257  0.17123848    -0.03200
Br1491     Br  0.89023393  0.99293461  0.16943560    -0.02900
H1492       H  0.81559829  0.93435962  0.17224164     0.09200
H1493       H  0.93351386  0.81978394  0.16993032     0.07300
Br1494     Br  0.85872927  0.76199082  0.16580899    -0.03400
C1495       C  0.60184536  0.64307577  0.02169043    -0.10000
C1496       C  0.60930385  0.67365075  0.03744955     0.06200
C1497       C  0.63582484  0.65889161  0.05265023    -0.03800
C1498       C  0.65178127  0.61323804  0.05263758    -0.08200
C1499       C  0.64245866  0.58110999  0.03756790     0.05300
C1500       C  0.61828066  0.59707404  0.02155474    -0.03200
Br1501     Br  0.60428169  0.55798245  0.99962112    -0.02900
H1502       H  0.58140059  0.65407706  0.00995986     0.09200
H1503       H  0.67187695  0.60303573  0.06464623     0.07300
Br1504     Br  0.65192441  0.69960288  0.07384378    -0.03400
C1505       C  0.45638348  0.02356253  0.00649222    -0.10000
C1506       C  0.48919300  0.04425796  0.99562997     0.06200
C1507       C  0.52803458  0.02045838  0.99404588    -0.03800
C1508       C  0.53291299  0.97599860  0.00249880    -0.08200
C1509       C  0.49991251  0.95483279  0.01297417     0.05300
C1510       C  0.46159955  0.97937790  0.01529631    -0.03200
Br1511     Br  0.41507751  0.95322585  0.02956380    -0.02900
H1512       H  0.42612303  0.04113348  0.00764161     0.09200
H1513       H  0.56322791  0.95847635  0.00140755     0.07300
Br1514     Br  0.57623423  0.04825215  0.98158932    -0.03400
C1515       C  0.64187019  0.81320521  0.10899160    -0.10000
C1516       C  0.59781748  0.80877446  0.11031559     0.06200
C1517       C  0.57916053  0.80346811  0.12887122    -0.03800
C1518       C  0.60442130  0.80493471  0.14563136    -0.08200
C1519       C  0.64836231  0.81016433  0.14423375     0.05300
C1520       C  0.66714093  0.81328492  0.12570359    -0.03200
Br1521     Br  0.72684230  0.82116009  0.12257481    -0.02900
H1522       H  0.65668919  0.81724700  0.09485762     0.09200
H1523       H  0.58964762  0.80261608  0.15984927     0.07300
Br1524     Br  0.51930010  0.79777668  0.13229447    -0.03400
C1525       C  0.68761730  0.98078355  0.01498734    -0.10000
C1526       C  0.70173989  0.96395786  0.99675128     0.06200
C1527       C  0.69052731  0.91739816  0.99126538    -0.03800
C1528       C  0.66457308  0.89034824  0.00334739    -0.08200
C1529       C  0.64920053  0.90765645  0.02123413     0.05300
C1530       C  0.66197152  0.95327314  0.02720761    -0.03200
Br1531     Br  0.64712244  0.97997167  0.05204377    -0.02900
H1532       H  0.69661088  0.01563082  0.01988857     0.09200
H1533       H  0.65562893  0.85555186  0.99834339     0.07300
Br1534     Br  0.70991442  0.88653789  0.96789702    -0.03400
C1535       C  0.46129527  0.66696962  0.00565162    -0.10000
C1536       C  0.45108770  0.71494193  0.00800540     0.06200
C1537       C  0.41776281  0.73402789  0.99707565    -0.03800
C1538       C  0.39520990  0.70528675  0.98418886    -0.08200
C1539       C  0.40469887  0.65690697  0.98193757     0.05300
C1540       C  0.43863269  0.63797669  0.99276400    -0.03200
Br1541     Br  0.45665518  0.57352527  0.99022770    -0.02900
H1542       H  0.48756313  0.65214439  0.01363590     0.09200
H1543       H  0.36856421  0.72062716  0.97662596     0.07300
Br1544     Br  0.39935658  0.79812527  0.00048179    -0.03400
C1545       C  0.37990113  0.82130350  0.08025417    -0.10000
C1546       C  0.41314205  0.85418906  0.08051405     0.06200
C1547       C  0.40308390  0.90269243  0.08222917    -0.03800
C1548       C  0.36096186  0.91711575  0.08158011    -0.08200
C1549       C  0.32798927  0.88448497  0.07920480     0.05300
C1550       C  0.33776816  0.83577446  0.07952927    -0.03200
Br1551     Br  0.29639789  0.78662850  0.07684973    -0.02900
H1552       H  0.38668395  0.78387852  0.07937329     0.09200
H1553       H  0.35416775  0.95459501  0.08182347     0.07300
Br1554     Br  0.44441212  0.95223992  0.08352221    -0.03400
C1555       C  0.89386175  0.39312655  0.27458624    -0.10000
C1556       C  0.88493761  0.42452210  0.28990770     0.06200
C1557       C  0.85919296  0.40940738  0.30537189    -0.03800
C1558       C  0.84393254  0.36349277  0.30561986    -0.08200
C1559       C  0.85346945  0.33118822  0.29063901     0.05300
C1560       C  0.87856121  0.34669599  0.27480552    -0.03200
Br1561     Br  0.89529012  0.30649713  0.25357932    -0.02900
H1562       H  0.91454364  0.40406012  0.26282469     0.09200
H1563       H  0.82386228  0.35337848  0.31771093     0.07300
Br1564     Br  0.84287156  0.44991261  0.32654377    -0.03400
C1565       C  0.72600783  0.01691734  0.26721202    -0.10000
C1566       C  0.75996744  0.04420712  0.26047966     0.06200
C1567       C  0.78529511  0.02659305  0.24517101    -0.03800
C1568       C  0.77612104  0.98275757  0.23695201    -0.08200
C1569       C  0.74231701  0.95534222  0.24375271     0.05300
C1570       C  0.71709864  0.97286135  0.25915128    -0.03200
Br1571     Br  0.66916035  0.94014230  0.26967410    -0.02900
H1572       H  0.70640250  0.02972986  0.27903859     0.09200
H1573       H  0.79578563  0.96989327  0.22516468     0.07300
Br1574     Br  0.83443363  0.05834472  0.23544057    -0.03400
C1575       C  0.68596560  0.26110754  0.24090565    -0.10000
C1576       C  0.70727919  0.28102108  0.25681956     0.06200
C1577       C  0.70431872  0.33030902  0.25978202    -0.03800
C1578       C  0.67840856  0.35773232  0.24781706    -0.08200
C1579       C  0.65479235  0.33759065  0.23258833     0.05300
C1580       C  0.65996993  0.28852171  0.22885193    -0.03200
Br1581     Br  0.63236226  0.25530614  0.20801120    -0.02900
H1582       H  0.68877680  0.22359302  0.23805322     0.09200
H1583       H  0.67586835  0.39512618  0.25093168     0.07300
Br1584     Br  0.73605516  0.36332062  0.27936936    -0.03400
C1585       C  0.65633050  0.08551321  0.32402047    -0.10000
C1586       C  0.66449118  0.13344086  0.32753902     0.06200
C1587       C  0.63012529  0.16327426  0.33212927    -0.03800
C1588       C  0.58873478  0.14585505  0.33163973    -0.08200
C1589       C  0.58007818  0.09866565  0.32658522     0.05300
C1590       C  0.61499654  0.06788565  0.32346764    -0.03200
Br1591     Br  0.61000381  0.00179238  0.31730507    -0.02900
H1592       H  0.68217606  0.06195086  0.32053573     0.09200
H1593       H  0.56309938  0.17013841  0.33448508     0.07300
Br1594     Br  0.63742957  0.22837756  0.33917289    -0.03400
C1595       C  0.92602817  0.11088380  0.25573335    -0.10000
C1596       C  0.91054690  0.09367560  0.27359553     0.06200
C1597       C  0.92269962  0.04764189  0.27925456    -0.03800
C1598       C  0.94581861  0.01885097  0.26637636    -0.08200
C1599       C  0.95838451  0.03487819  0.24779957     0.05300
C1600       C  0.94960329  0.08251495  0.24298665    -0.03200
Br1601     Br  0.96883110  0.11262804  0.21951645    -0.02900
H1602       H  0.91815599  0.14629951  0.25107891     0.09200
H1603       H  0.95388024  0.98347433  0.27100496     0.07300
Br1604     Br  0.91037005  0.02225123  0.30455699    -0.03400
C1605       C  0.86625800  0.34476791  0.44969003    -0.10000
C1606       C  0.88656945  0.33098261  0.46686853     0.06200
C1607       C  0.88830568  0.36293189  0.48261997    -0.03800
C1608       C  0.87069402  0.40814792  0.48065739    -0.08200
C1609       C  0.85187101  0.42267273  0.46304572     0.05300
C1610       C  0.84981720  0.38985966  0.44741856    -0.03200
Br1611     Br  0.82651838  0.40229430  0.42201744    -0.02900
H1612       H  0.86458519  0.32065794  0.43749623     0.09200
H1613       H  0.87245616  0.43210877  0.49280856     0.07300
Br1614     Br  0.91665031  0.34856810  0.50656605    -0.03400
C1615       C  0.96909848  0.98078000  0.51438643    -0.10000
C1616       C  0.00349971  0.95408866  0.50764487     0.06200
C1617       C  0.02896121  0.97254240  0.49257698    -0.03800
C1618       C  0.01986904  0.01693758  0.48488274    -0.08200
C1619       C  0.98615443  0.04418160  0.49200771     0.05300
C1620       C  0.96043972  0.02547301  0.50694184    -0.03200
Br1621     Br  0.91246670  0.05771678  0.51776400    -0.02900
H1622       H  0.94909646  0.96710906  0.52594014     0.09200
H1623       H  0.03983098  0.03060276  0.47331053     0.07300
Br1624     Br  0.07829980  0.94127882  0.48260802    -0.03400
C1625       C  0.91489172  0.20118138  0.37707501    -0.10000
C1626       C  0.89498928  0.19989949  0.39530861     0.06200
C1627       C  0.85051398  0.19978854  0.39620767    -0.03800
C1628       C  0.82677584  0.19734969  0.37901811    -0.08200
C1629       C  0.84685906  0.19454438  0.36082244     0.05300
C1630       C  0.89118061  0.19840734  0.35990149    -0.03200
Br1631     Br  0.92071449  0.20046552  0.33548280    -0.02900
H1632       H  0.94887162  0.20199252  0.37618917     0.09200
H1633       H  0.79282108  0.19565239  0.37991167     0.07300
Br1634     Br  0.82093527  0.20289895  0.42063600    -0.03400
C1635       C  0.03393970  0.32795049  0.50023806    -0.10000
C1636       C  0.04230120  0.27945412  0.49875682     0.06200
C1637       C  0.07487122  0.25983763  0.51003447    -0.03800
C1638       C  0.09954310  0.28924532  0.52186289    -0.08200
C1639       C  0.09217948  0.33838364  0.52288599     0.05300
C1640       C  0.05787556  0.35723275  0.51235611    -0.03200
Br1641     Br  0.04085359  0.42211991  0.51423642    -0.02900
H1642       H  0.00825575  0.34314260  0.49202403     0.09200
H1643       H  0.12594721  0.27378071  0.52950148     0.07300
Br1644     Br  0.08936586  0.19410632  0.50847701    -0.03400
C1645       C  0.11186799  0.17668378  0.42478023    -0.10000
C1646       C  0.07890031  0.14345793  0.42505810     0.06200
C1647       C  0.08926525  0.09502175  0.42358024    -0.03800
C1648       C  0.13160025  0.08111331  0.42366040    -0.08200
C1649       C  0.16444524  0.11424420  0.42537174     0.05300
C1650       C  0.15412707  0.16278344  0.42512148    -0.03200
Br1651     Br  0.19496472  0.21256162  0.42752322    -0.02900
H1652       H  0.10482506  0.21406970  0.42555717     0.09200
H1653       H  0.13873887  0.04370712  0.42347416     0.07300
Br1654     Br  0.04816208  0.04518522  0.42340958    -0.03400
C1655       C  0.78155644  0.08557828  0.50454112    -0.10000
C1656       C  0.78841622  0.03652827  0.50442583     0.06200
C1657       C  0.81771736  0.01738037  0.49118323    -0.03800
C1658       C  0.84092282  0.04730530  0.47910897    -0.08200
C1659       C  0.83656367  0.09676139  0.48020765     0.05300
C1660       C  0.80507794  0.11571534  0.49255770    -0.03200
Br1661     Br  0.79226252  0.18199429  0.49372733    -0.02900
H1662       H  0.75779933  0.10061552  0.51409009     0.09200
H1663       H  0.86503268  0.03161932  0.46994573     0.07300
Br1664     Br  0.83148382  0.95136640  0.49062609    -0.03400
loop_ 
_geom_bond_atom_site_label_1 
_geom_bond_atom_site_label_2 
_geom_bond_distance 
_geom_bond_site_symmetry_2 
_ccdc_geom_bond_type 
Fe1          O17   2.107       .  S
Fe1           O7   2.018       .  S
Fe1          O14   2.036   1_655  S
Fe1           O6   2.090   1_655  S
Fe1          O12   1.934       .  S
Fe2           O5   2.075       .  S
Fe2           O9   2.041       .  S
Fe2          O13   2.096   1_655  S
Fe2          O18   2.035       .  S
Fe2          O12   1.936       .  S
Fe3          O21   2.057       .  S
Fe3           O8   2.096       .  S
Fe3          O15   2.108       .  S
Fe3           O4   2.059       .  S
Fe3          O12   1.943       .  S
O4           C11   1.267   1_655  A
O5           C19   1.272       .  A
O6           C11   1.274       .  A
O7           C10   1.266       .  A
O8           C20   1.276       .  A
O9           C22   1.265       .  A
C10          O15   1.278       .  A
C10        C1606   1.476       .  S
C11        C1636   1.476       .  S
O13          C16   1.273       .  A
O14          C16   1.266       .  A
C16        C1646   1.487       .  S
O17          C22   1.276       .  A
O18          C20   1.268       .  A
C19          O21   1.268       .  A
C19        C1659   1.486       .  S
C20        C1619   1.476       .  S
C22        C1626   1.476       .  S
Fe23         O39   2.099       .  S
Fe23         O29   2.037       .  S
Fe23         O36   2.049       .  S
Fe23         O28   2.085       .  S
Fe23         O34   1.938       .  S
Fe24         O27   2.100       .  S
Fe24         O31   2.056       .  S
Fe24         O35   2.109       .  S
Fe24         O40   2.028       .  S
Fe24         O34   1.943       .  S
Fe25         O43   2.061       .  S
Fe25         O30   2.094       .  S
Fe25         O37   2.094       .  S
Fe25         O26   2.064       .  S
Fe25         O34   1.943       .  S
O26          C33   1.270       .  A
O27          C41   1.273       .  A
O28          C33   1.272       .  A
O29          C32   1.270       .  A
O30          C42   1.277       .  A
O31          C44   1.269       .  A
C32          O37   1.275       .  A
C32        C1559   1.485       .  S
C33        C1576   1.488       .  S
O35          C38   1.278       .  A
O36          C38   1.266       .  A
C38        C1586   1.492       .  S
O39          C44   1.274       .  A
O40          C42   1.268       .  A
C41          O43   1.269       .  A
C41        C1596   1.500       .  S
C42        C1566   1.473       .  S
C44        C1629   1.479       .  S
Fe45         O61   2.043       .  S
Fe45         O51   2.101       .  S
Fe45         O58   2.108       .  S
Fe45         O50   2.029       .  S
Fe45         O56   1.936       .  S
Fe46         O49   2.047       .  S
Fe46         O53   2.094       .  S
Fe46         O57   2.054       .  S
Fe46         O62   2.100       .  S
Fe46         O56   1.936       .  S
Fe47         O65   2.097       .  S
Fe47         O52   2.051       .  S
Fe47         O59   2.055       .  S
Fe47         O48   2.099       .  S
Fe47         O56   1.931       .  S
O48          C55   1.277       .  A
O49          C63   1.268       .  A
O50          C55   1.267       .  A
O51          C54   1.275       .  A
O52          C64   1.269       .  A
O53          C66   1.273       .  A
C54          O59   1.268       .  A
C54        C1536   1.480       .  S
C55        C1496   1.470       .  S
O57          C60   1.269       .  A
O58          C60   1.277       .  A
C60        C1516   1.482       .  S
O61          C66   1.268       .  A
O62          C64   1.274       .  A
C63          O65   1.277       .  A
C63        C1509   1.472       .  S
C64        C1529   1.495       .  S
C66        C1546   1.487       .  S
Fe67         O83   2.047       .  S
Fe67         O73   2.085       .  S
Fe67         O80   2.100       .  S
Fe67         O72   2.037       .  S
Fe67         O78   1.933       .  S
Fe68         O71   2.036       .  S
Fe68         O75   2.106       .  S
Fe68         O79   2.054       .  S
Fe68         O84   2.089       .  S
Fe68         O78   1.942       .  S
Fe69         O87   2.089       .  S
Fe69         O74   2.056       .  S
Fe69         O81   2.056       .  S
Fe69         O70   2.104       .  S
Fe69         O78   1.949       .  S
O70          C77   1.276       .  A
O71          C85   1.268       .  A
O72          C77   1.268       .  A
O73          C76   1.273       .  A
O74          C86   1.268       .  A
O75          C88   1.276       .  A
C76          O81   1.269       .  A
C76        C1476   1.492       .  S
C77        C1456   1.491       .  S
O79          C82   1.268       .  A
O80          C82   1.276       .  A
C82        C1519   1.476       .  S
O83          C88   1.265       .  A
O84          C86   1.275       .  A
C85          O87   1.275       .  A
C85        C1569   1.474       .  S
C86        C1469   1.492       .  S
C88        C1486   1.494       .  S
Fe89        O105   2.106       .  S
Fe89         O95   2.041       .  S
Fe89        O102   2.044       .  S
Fe89         O94   2.096       .  S
Fe89        O100   1.932       .  S
Fe90         O93   2.082       .  S
Fe90         O97   2.049       .  S
Fe90        O101   2.095       .  S
Fe90        O106   2.040       .  S
Fe90        O100   1.940       .  S
Fe91        O109   2.051       .  S
Fe91         O96   2.075       .  S
Fe91        O103   2.086       .  S
Fe91         O92   2.044       .  S
Fe91        O100   1.940       .  S
O92          C99   1.266       .  A
O93         C107   1.270       .  A
O94          C99   1.277       .  A
O95          C98   1.269       .  A
O96         C108   1.270       .  A
O97         C110   1.267       .  A
C98         O103   1.271       .  A
C98        C1396   1.484       .  S
C99        C1426   1.479       .  S
O101        C104   1.275       .  A
O102        C104   1.264       .  A
C104       C1436   1.490       .  S
O105        C110   1.277       .  A
O106        C108   1.269       .  A
C107        O109   1.270       .  A
C107       C1449   1.490       .  S
C108       C1409   1.473       .  S
C110       C1416   1.476       .  S
Fe111       O127   2.103       .  S
Fe111       O117   2.027       .  S
Fe111       O124   2.042       .  S
Fe111       O116   2.097       .  S
Fe111       O122   1.937       .  S
Fe112       O115   2.087       .  S
Fe112       O119   2.052       .  S
Fe112       O123   2.094       .  S
Fe112       O128   2.050       .  S
Fe112       O122   1.938       .  S
Fe113       O131   2.049       .  S
Fe113       O118   2.100       .  S
Fe113       O125   2.095       .  S
Fe113       O114   2.052       .  S
Fe113       O122   1.936       .  S
O114        C121   1.269       .  A
O115        C129   1.272       .  A
O116        C121   1.276       .  A
O117        C120   1.264       .  A
O118        C130   1.278       .  A
O119        C132   1.269       .  A
C120        O125   1.276       .  A
C120       C1359   1.467       .  S
C121       C1366   1.482       .  S
O123        C126   1.275       .  A
O124        C126   1.264       .  A
C126       C1379   1.487       .  S
O127        C132   1.276       .  A
O128        C130   1.271       .  A
C129        O131   1.266       .  A
C129       C1389   1.490       .  S
C130       C1506   1.476       .  S
C132       C1419   1.479       .  S
Fe133       O149   2.061       .  S
Fe133       O139   2.093       .  S
Fe133       O146   2.102       .  S
Fe133       O138   2.049       .  S
Fe133       O144   1.936       .  S
Fe134       O137   2.030       .  S
Fe134       O141   2.098       .  S
Fe134       O145   2.042       .  S
Fe134       O150   2.089       .  S
Fe134       O144   1.941       .  S
Fe135       O153   2.074       .  S
Fe135       O140   2.056       .  S
Fe135       O147   2.054       .  S
Fe135       O136   2.072       .  S
Fe135       O144   1.943       .  S
O136        C143   1.269       .  A
O137        C151   1.266       .  A
O138        C143   1.269       .  A
O139        C142   1.276       .  A
O140        C152   1.270       .  A
O141        C154   1.274       .  A
C142        O147   1.269       .  A
C142       C1336   1.483       .  S
C143       C1306   1.457       .  S
O145        C148   1.266       .  A
O146        C148   1.277       .  A
C148       C1316   1.479       .  S
O149        C154   1.270       .  A
O150        C152   1.273       .  A
C151        O153   1.270       .  A
C151       C1406   1.471       .  S
C152       C1326   1.492       .  S
C154       C1349   1.503       .  S
Fe155       O171   2.049   1_455  S
Fe155       O161   2.082   1_455  S
Fe155       O168   2.099       .  S
Fe155       O160   2.033       .  S
Fe155       O166   1.932       .  S
Fe156       O159   2.031       .  S
Fe156       O163   2.087   1_455  S
Fe156       O167   2.041       .  S
Fe156       O172   2.074       .  S
Fe156       O166   1.934       .  S
Fe157       O175   2.098       .  S
Fe157       O162   2.056       .  S
Fe157       O169   2.048       .  S
Fe157       O158   2.095       .  S
Fe157       O166   1.938       .  S
O158        C165   1.276       .  A
O159        C173   1.269       .  A
O160        C165   1.270       .  A
O161        C164   1.271       .  A
O162        C174   1.266       .  A
O163        C176   1.270       .  A
C164        O169   1.267   1_655  A
C164       C1289   1.483       .  S
C165       C1266   1.486       .  S
O167        C170   1.267       .  A
O168        C170   1.276       .  A
C170       C1319   1.467       .  S
O171        C176   1.267       .  A
O172        C174   1.270       .  A
C173        O175   1.278       .  A
C173       C1616   1.475       .  S
C174       C1276   1.491       .  S
C176       C1296   1.482       .  S
Fe177       O193   2.046       .  S
Fe177       O183   2.104   1_565  S
Fe177       O190   2.120       .  S
Fe177       O182   2.036   1_565  S
Fe177       O188   1.934       .  S
Fe178       O181   2.033       .  S
Fe178       O185   2.091       .  S
Fe178       O189   2.044       .  S
Fe178       O194   2.086       .  S
Fe178       O188   1.937       .  S
Fe179       O197   2.086       .  S
Fe179       O184   2.056       .  S
Fe179       O191   2.045       .  S
Fe179       O180   2.104   1_565  S
Fe179       O188   1.940       .  S
O180        C187   1.277       .  A
O181        C195   1.266       .  A
O182        C187   1.269       .  A
O183        C186   1.277   1_545  A
O184        C196   1.268       .  A
O185        C198   1.272       .  A
C186        O191   1.264       .  A
C186       C1386   1.478   1_565  S
C187       C1226   1.468       .  S
O189        C192   1.267       .  A
O190        C192   1.280       .  A
C192       C1246   1.483       .  S
O193        C198   1.268       .  A
O194        C196   1.274       .  A
C195        O197   1.274       .  A
C195       C1239   1.475       .  S
C196       C1256   1.493       .  S
C198       C1549   1.486       .  S
Fe199       O215   2.047   1_455  S
Fe199       O205   2.106   1_465  S
Fe199       O212   2.113       .  S
Fe199       O204   2.033   1_565  S
Fe199       O210   1.932       .  S
Fe200       O203   2.037       .  S
Fe200       O207   2.107   1_455  S
Fe200       O211   2.051       .  S
Fe200       O216   2.088       .  S
Fe200       O210   1.940       .  S
Fe201       O219   2.097       .  S
Fe201       O206   2.048       .  S
Fe201       O213   2.056   1_455  S
Fe201       O202   2.092   1_565  S
Fe201       O210   1.946       .  S
O202        C209   1.274       .  A
O203        C217   1.266       .  A
O204        C209   1.267       .  A
O205        C208   1.277       .  A
O206        C218   1.266       .  A
O207        C220   1.278       .  A
C208        O213   1.270   1_545  A
C208       C1599   1.501       .  S
C209       C1199   1.464       .  S
O211        C214   1.266       .  A
O212        C214   1.278       .  A
C214       C1249   1.483       .  S
O215        C220   1.267       .  A
O216        C218   1.275       .  A
C217        O219   1.277       .  A
C217       C1209   1.476       .  S
C218       C1216   1.489       .  S
C220       C1489   1.495       .  S
Fe221       O237   2.096       .  S
Fe221       O227   2.029       .  S
Fe221       O234   2.033   1_655  S
Fe221       O226   2.089   1_655  S
Fe221       O232   1.930       .  S
Fe222       O225   2.086       .  S
Fe222       O229   2.039       .  S
Fe222       O233   2.091   1_655  S
Fe222       O238   2.038       .  S
Fe222       O232   1.939       .  S
Fe223       O241   2.048       .  S
Fe223       O228   2.099       .  S
Fe223       O235   2.101       .  S
Fe223       O224   2.046       .  S
Fe223       O232   1.931       .  S
O224        C231   1.268   1_655  A
O225        C239   1.271       .  A
O226        C231   1.273       .  A
O227        C230   1.266       .  A
O228        C240   1.279       .  A
O229        C242   1.267       .  A
C230        O235   1.277       .  A
C230       C1556   1.471       .  S
C231       C1176   1.486       .  S
O233        C236   1.273       .  A
O234        C236   1.263       .  A
C236       C1189   1.484       .  S
O237        C242   1.275       .  A
O238        C240   1.268       .  A
C239        O241   1.268       .  A
C239       C1479   1.477       .  S
C240       C1206   1.475       .  S
C242       C1166   1.468       .  S
Fe243       O259   2.091       .  S
Fe243       O249   2.033       .  S
Fe243       O256   2.049       .  S
Fe243       O248   2.085       .  S
Fe243       O254   1.931       .  S
Fe244       O247   2.073       .  S
Fe244       O251   2.043       .  S
Fe244       O255   2.090       .  S
Fe244       O260   2.041       .  S
Fe244       O254   1.933       .  S
Fe245       O263   2.055       .  S
Fe245       O250   2.107       .  S
Fe245       O257   2.102       .  S
Fe245       O246   2.049       .  S
Fe245       O254   1.935       .  S
O246        C253   1.268       .  A
O247        C261   1.268       .  A
O248        C253   1.274       .  A
O249        C252   1.264       .  A
O250        C262   1.280       .  A
O251        C264   1.266       .  A
C252        O257   1.277       .  A
C252       C1609   1.488       .  S
C253       C1146   1.474       .  S
O255        C258   1.271       .  A
O256        C258   1.268       .  A
C258       C1156   1.486       .  S
O259        C264   1.274       .  A
O260        C262   1.269       .  A
C261        O263   1.268       .  A
C261       C1286   1.485       .  S
C262       C1136   1.474       .  S
C264       C1169   1.466       .  S
Fe265       O281   2.055       .  S
Fe265       O271   2.080   1_565  S
Fe265       O278   2.096       .  S
Fe265       O270   2.040   1_565  S
Fe265       O276   1.941       .  S
Fe266       O269   2.036       .  S
Fe266       O273   2.109       .  S
Fe266       O277   2.061       .  S
Fe266       O282   2.094       .  S
Fe266       O276   1.936       .  S
Fe267       O285   2.102       .  S
Fe267       O272   2.054       .  S
Fe267       O279   2.050       .  S
Fe267       O268   2.098   1_565  S
Fe267       O276   1.945       .  S
O268        C275   1.277       .  A
O269        C283   1.267       .  A
O270        C275   1.269       .  A
O271        C274   1.271       .  A
O272        C284   1.268       .  A
O273        C286   1.277       .  A
C274        O279   1.268   1_545  A
C274       C1446   1.481       .  S
C275       C1096   1.469       .  S
O277        C280   1.268       .  A
O278        C280   1.274       .  A
C280       C1116   1.478       .  S
O281        C286   1.269       .  A
O282        C284   1.273       .  A
C283        O285   1.277       .  A
C283       C1106   1.479       .  S
C284       C1126   1.498       .  S
C286       C1346   1.501       .  S
Fe287       O303   2.039       .  S
Fe287       O293   2.096   1_565  S
Fe287       O300   2.099       .  S
Fe287       O292   2.022   1_565  S
Fe287       O298   1.929       .  S
Fe288       O291   2.048       .  S
Fe288       O295   2.095       .  S
Fe288       O299   2.058       .  S
Fe288       O304   2.090       .  S
Fe288       O298   1.928       .  S
Fe289       O307   2.099       .  S
Fe289       O294   2.051       .  S
Fe289       O301   2.049       .  S
Fe289       O290   2.100   1_565  S
Fe289       O298   1.934       .  S
O290        C297   1.276       .  A
O291        C305   1.269       .  A
O292        C297   1.266       .  A
O293        C296   1.275       .  A
O294        C306   1.269       .  A
O295        C308   1.274       .  A
C296        O301   1.268   1_545  A
C296       C1656   1.478       .  S
C297       C1079   1.473       .  S
O299        C302   1.269       .  A
O300        C302   1.274       .  A
C302       C1119   1.483       .  S
O303        C308   1.269       .  A
O304        C306   1.272       .  A
C305        O307   1.278       .  A
C305       C1139   1.474       .  S
C306       C1086   1.493       .  S
C308       C1299   1.487       .  S
Fe309       O325   2.112       .  S
Fe309       O315   2.020       .  S
Fe309       O322   2.042       .  S
Fe309       O314   2.098       .  S
Fe309       O320   1.941       .  S
Fe310       O313   2.088       .  S
Fe310       O317   2.051       .  S
Fe310       O321   2.096       .  S
Fe310       O326   2.038       .  S
Fe310       O320   1.943       .  S
Fe311       O329   2.057       .  S
Fe311       O316   2.100       .  S
Fe311       O323   2.107       .  S
Fe311       O312   2.062       .  S
Fe311       O320   1.944       .  S
O312        C319   1.269       .  A
O313        C327   1.273       .  A
O314        C319   1.275       .  A
O315        C318   1.265       .  A
O316        C328   1.277       .  A
O317        C330   1.267       .  A
C318        O323   1.278       .  A
C318       C1399   1.471       .  S
C319       C1056   1.482       .  S
O321        C324   1.275       .  A
O322        C324   1.264       .  A
C324       C1066   1.487       .  S
O325        C330   1.279       .  A
O326        C328   1.268       .  A
C327        O329   1.267       .  A
C327       C1339   1.495       .  S
C328       C1109   1.479       .  S
C330       C1046   1.488       .  S
Fe331       O347   2.110       .  S
Fe331       O337   2.035       .  S
Fe331       O344   2.051       .  S
Fe331       O336   2.101       .  S
Fe331       O342   1.937       .  S
Fe332       O335   2.086       .  S
Fe332       O339   2.055       .  S
Fe332       O343   2.097       .  S
Fe332       O348   2.032       .  S
Fe332       O342   1.938       .  S
Fe333       O351   2.059       .  S
Fe333       O338   2.088       .  S
Fe333       O345   2.095       .  S
Fe333       O334   2.052       .  S
Fe333       O342   1.945       .  S
O334        C341   1.266       .  A
O335        C349   1.273       .  A
O336        C341   1.276       .  A
O337        C340   1.269       .  A
O338        C350   1.275       .  A
O339        C352   1.269       .  A
C340        O345   1.276       .  A
C340       C1356   1.485       .  S
C341       C1029   1.480       .  S
O343        C346   1.273       .  A
O344        C346   1.268       .  A
C346       C1036   1.490       .  S
O347        C352   1.278       .  A
O348        C350   1.269       .  A
C349        O351   1.268       .  A
C349       C1539   1.492       .  S
C350       C1236   1.476       .  S
C352       C1049   1.479       .  S
Fe353       O369   2.047       .  S
Fe353       O359   2.089       .  S
Fe353       O366   2.101       .  S
Fe353       O358   2.035       .  S
Fe353       O364   1.936       .  S
Fe354       O357   2.027       .  S
Fe354       O361   2.101       .  S
Fe354       O365   2.046       .  S
Fe354       O370   2.085       .  S
Fe354       O364   1.938       .  S
Fe355       O373   2.093       .  S
Fe355       O360   2.060       .  S
Fe355       O367   2.056       .  S
Fe355       O356   2.102       .  S
Fe355       O364   1.945       .  S
O356        C363   1.276       .  A
O357        C371   1.266       .  A
O358        C363   1.269       .  A
O359        C362   1.273       .  A
O360        C372   1.269       .  A
O361        C374   1.276       .  A
C362        O367   1.269       .  A
C362       C1009   1.485       .  S
C363       C1499   1.485       .  S
O365        C368   1.265       .  A
O366        C368   1.275       .  A
C368        C999   1.474       .  S
O369        C374   1.266       .  A
O370        C372   1.274       .  A
C371        O373   1.275       .  A
C371        C989   1.477       .  S
C372       C1369   1.494       .  S
C374       C1016   1.490       .  S
Fe375       O391   2.052       .  S
Fe375       O381   2.082       .  S
Fe375       O388   2.102       .  S
Fe375       O380   2.044       .  S
Fe375       O386   1.938       .  S
Fe376       O379   2.030       .  S
Fe376       O383   2.092       .  S
Fe376       O387   2.044       .  S
Fe376       O392   2.084       .  S
Fe376       O386   1.941       .  S
Fe377       O395   2.093       .  S
Fe377       O382   2.063       .  S
Fe377       O389   2.056       .  S
Fe377       O378   2.100       .  S
Fe377       O386   1.943       .  S
O378        C385   1.277       .  A
O379        C393   1.267       .  A
O380        C385   1.270       .  A
O381        C384   1.272       .  A
O382        C394   1.271       .  A
O383        C396   1.271       .  A
C384        O389   1.268       .  A
C384        C969   1.479       .  S
C385       C1459   1.477       .  S
O387        C390   1.267       .  A
O388        C390   1.277       .  A
C390        C996   1.475       .  S
O391        C396   1.267       .  A
O392        C394   1.270       .  A
C393        O395   1.275       .  A
C393        C956   1.475       .  S
C394       C1579   1.498       .  S
C396        C979   1.493       .  S
Fe397       O413   2.103       .  S
Fe397       O403   2.031   1_545  S
Fe397       O410   2.042       .  S
Fe397       O402   2.092   1_545  S
Fe397       O408   1.934       .  S
Fe398       O401   2.090       .  S
Fe398       O405   2.048       .  S
Fe398       O409   2.097       .  S
Fe398       O414   2.032       .  S
Fe398       O408   1.933       .  S
Fe399       O417   2.058       .  S
Fe399       O404   2.087       .  S
Fe399       O411   2.092   1_545  S
Fe399       O400   2.053       .  S
Fe399       O408   1.939       .  S
O400        C407   1.267       .  A
O401        C415   1.275       .  A
O402        C407   1.274   1_565  A
O403        C406   1.269       .  A
O404        C416   1.274       .  A
O405        C418   1.267       .  A
C406        O411   1.275       .  A
C406        C916   1.477       .  S
C407       C1279   1.480   1_545  S
O409        C412   1.274       .  A
O410        C412   1.267       .  A
C412       C1649   1.486       .  S
O413        C418   1.275       .  A
O414        C416   1.267       .  A
C415        O417   1.269       .  A
C415        C949   1.493       .  S
C416        C929   1.474       .  S
C418        C936   1.473       .  S
Fe419       O435   2.107       .  S
Fe419       O425   2.030   1_545  S
Fe419       O432   2.044       .  S
Fe419       O424   2.101   1_545  S
Fe419       O430   1.934       .  S
Fe420       O423   2.105       .  S
Fe420       O427   2.049       .  S
Fe420       O431   2.108       .  S
Fe420       O436   2.030       .  S
Fe420       O430   1.937       .  S
Fe421       O439   2.056       .  S
Fe421       O426   2.087       .  S
Fe421       O433   2.103   1_545  S
Fe421       O422   2.049       .  S
Fe421       O430   1.943       .  S
O422        C429   1.268   1_545  A
O423        C437   1.279       .  A
O424        C429   1.277       .  A
O425        C428   1.266       .  A
O426        C438   1.272       .  A
O427        C440   1.266       .  A
C428        O433   1.275       .  A
C428        C899   1.476       .  S
C429       C1466   1.480       .  S
O431        C434   1.279       .  A
O432        C434   1.264       .  A
C434       C1589   1.502       .  S
O435        C440   1.277       .  A
O436        C438   1.264       .  A
C437        O439   1.271       .  A
C437        C906   1.498       .  S
C438        C959   1.475       .  S
C440        C939   1.487       .  S
Fe441       O457   2.037   1_455  S
Fe441       O447   2.095   1_455  S
Fe441       O454   2.100       .  S
Fe441       O446   2.025       .  S
Fe441       O452   1.933       .  S
Fe442       O445   2.041       .  S
Fe442       O449   2.104   1_455  S
Fe442       O453   2.054       .  S
Fe442       O458   2.093       .  S
Fe442       O452   1.932       .  S
Fe443       O461   2.099       .  S
Fe443       O448   2.051       .  S
Fe443       O455   2.052       .  S
Fe443       O444   2.103       .  S
Fe443       O452   1.938       .  S
O444        C451   1.277       .  A
O445        C459   1.267       .  A
O446        C451   1.266       .  A
O447        C450   1.274       .  A
O448        C460   1.268       .  A
O449        C462   1.278       .  A
C450        O455   1.268   1_655  A
C450        C876   1.477       .  S
C451       C1309   1.466       .  S
O453        C456   1.267       .  A
O454        C456   1.275       .  A
C456        C869   1.477       .  S
O457        C462   1.264       .  A
O458        C460   1.276       .  A
C459        O461   1.277       .  A
C459        C859   1.474       .  S
C460       C1429   1.493       .  S
C462        C886   1.491       .  S
Fe463       O479   2.045       .  S
Fe463       O469   2.094       .  S
Fe463       O476   2.106       .  S
Fe463       O468   2.026       .  S
Fe463       O474   1.940       .  S
Fe464       O467   2.036       .  S
Fe464       O471   2.091       .  S
Fe464       O475   2.050       .  S
Fe464       O480   2.081       .  S
Fe464       O474   1.941       .  S
Fe465       O483   2.083       .  S
Fe465       O470   2.060       .  S
Fe465       O477   2.054       .  S
Fe465       O466   2.093       .  S
Fe465       O474   1.943       .  S
O466        C473   1.277       .  A
O467        C481   1.270       .  A
O468        C473   1.266       .  A
O469        C472   1.275       .  A
O470        C482   1.269       .  A
O471        C484   1.273       .  A
C472        O477   1.266       .  A
C472        C839   1.481       .  S
C473       C1269   1.470       .  S
O475        C478   1.268       .  A
O476        C478   1.277       .  A
C478        C866   1.479       .  S
O479        C484   1.265       .  A
O480        C482   1.271       .  A
C481        O483   1.274       .  A
C481        C926   1.474       .  S
C482       C1639   1.490       .  S
C484        C846   1.481       .  S
Fe485       O501   2.094       .  S
Fe485       O491   2.024   1_545  S
Fe485       O498   2.039   1_655  S
Fe485       O490   2.084   1_645  S
Fe485       O496   1.934       .  S
Fe486       O489   2.081       .  S
Fe486       O493   2.053       .  S
Fe486       O497   2.099   1_655  S
Fe486       O502   2.039       .  S
Fe486       O496   1.937       .  S
Fe487       O505   2.053       .  S
Fe487       O492   2.099       .  S
Fe487       O499   2.094       .  S
Fe487       O488   2.056       .  S
Fe487       O496   1.942       .  S
O488        C495   1.269   1_655  A
O489        C503   1.269       .  A
O490        C495   1.271   1_565  A
O491        C494   1.266       .  A
O492        C504   1.279       .  A
O493        C506   1.268       .  A
C494        O499   1.277   1_565  A
C494        C809   1.463       .  S
C495       C1329   1.490   1_545  S
O497        C500   1.276       .  A
O498        C500   1.265       .  A
C500       C1439   1.485       .  S
O501        C506   1.274       .  A
O502        C504   1.269       .  A
C503        O505   1.268       .  A
C503        C826   1.492       .  S
C504        C856   1.473       .  S
C506        C816   1.476       .  S
Fe507       O523   2.102       .  S
Fe507       O513   2.031   1_545  S
Fe507       O520   2.034       .  S
Fe507       O512   2.094   1_545  S
Fe507       O518   1.925       .  S
Fe508       O511   2.081       .  S
Fe508       O515   2.046       .  S
Fe508       O519   2.093       .  S
Fe508       O524   2.033       .  S
Fe508       O518   1.937       .  S
Fe509       O527   2.052       .  S
Fe509       O514   2.095       .  S
Fe509       O521   2.104   1_545  S
Fe509       O510   2.056       .  S
Fe509       O518   1.937       .  S
O510        C517   1.269   1_545  A
O511        C525   1.273       .  A
O512        C517   1.274       .  A
O513        C516   1.268       .  A
O514        C526   1.277       .  A
O515        C528   1.266       .  A
C516        O521   1.277       .  A
C516        C786   1.480       .  S
C517       C1526   1.496       .  S
O519        C522   1.275       .  A
O520        C522   1.265       .  A
C522       C1376   1.479       .  S
O523        C528   1.275       .  A
O524        C526   1.267       .  A
C525        O527   1.266       .  A
C525        C796   1.490       .  S
C526        C986   1.478       .  S
C528        C819   1.473       .  S
Fe529       O545   2.100       .  S
Fe529       O535   2.040       .  S
Fe529       O542   2.051   1_655  S
Fe529       O534   2.095   1_655  S
Fe529       O540   1.932       .  S
Fe530       O533   2.096       .  S
Fe530       O537   2.045       .  S
Fe530       O541   2.091   1_655  S
Fe530       O546   2.035       .  S
Fe530       O540   1.937       .  S
Fe531       O549   2.053       .  S
Fe531       O536   2.088       .  S
Fe531       O543   2.092       .  S
Fe531       O532   2.053       .  S
Fe531       O540   1.937       .  S
O532        C539   1.269   1_655  A
O533        C547   1.273       .  A
O534        C539   1.275       .  A
O535        C538   1.269       .  A
O536        C548   1.275       .  A
O537        C550   1.269       .  A
C538        O543   1.275       .  A
C538        C789   1.469       .  S
C539       C1259   1.483       .  S
O541        C544   1.272       .  A
O542        C544   1.269       .  A
C544       C1039   1.494       .  S
O545        C550   1.276       .  A
O546        C548   1.264       .  A
C547        O549   1.270       .  A
C547       C1006   1.496       .  S
C548        C766   1.465       .  S
C550        C776   1.489       .  S
Fe551       O567   2.105       .  S
Fe551       O557   2.033       .  S
Fe551       O564   2.047       .  S
Fe551       O556   2.105       .  S
Fe551       O562   1.932       .  S
Fe552       O555   2.088       .  S
Fe552       O559   2.037       .  S
Fe552       O563   2.091       .  S
Fe552       O568   2.029       .  S
Fe552       O562   1.932       .  S
Fe553       O571   2.054       .  S
Fe553       O558   2.092       .  S
Fe553       O565   2.087       .  S
Fe553       O554   2.048       .  S
Fe553       O562   1.940       .  S
O554        C561   1.270       .  A
O555        C569   1.276       .  A
O556        C561   1.276       .  A
O557        C560   1.267       .  A
O558        C570   1.273       .  A
O559        C572   1.265       .  A
C560        O565   1.273       .  A
C560        C806   1.476       .  S
C561       C1129   1.491       .  S
O563        C566   1.275       .  A
O564        C566   1.265       .  A
C566       C1069   1.492       .  S
O567        C572   1.277       .  A
O568        C570   1.265       .  A
C569        O571   1.268       .  A
C569        C879   1.491       .  S
C570        C756   1.479       .  S
C572        C779   1.478       .  S
Fe573       O589   2.052   1_455  S
Fe573       O579   2.081   1_455  S
Fe573       O586   2.100       .  S
Fe573       O578   2.042       .  S
Fe573       O584   1.933       .  S
Fe574       O577   2.041       .  S
Fe574       O581   2.099   1_455  S
Fe574       O585   2.056       .  S
Fe574       O590   2.093       .  S
Fe574       O584   1.939       .  S
Fe575       O593   2.083       .  S
Fe575       O580   2.054       .  S
Fe575       O587   2.050       .  S
Fe575       O576   2.091       .  S
Fe575       O584   1.947       .  S
O576        C583   1.273       .  A
O577        C591   1.267       .  A
O578        C583   1.269       .  A
O579        C582   1.275       .  A
O580        C592   1.271       .  A
O581        C594   1.275       .  A
C582        O587   1.268   1_655  A
C582        C799   1.482       .  S
C583       C1229   1.478       .  S
O585        C588   1.269       .  A
O586        C588   1.276       .  A
C588        C746   1.479       .  S
O589        C594   1.264       .  A
O590        C592   1.273       .  A
C591        O593   1.274       .  A
C591        C769   1.466       .  S
C592       C1026   1.495       .  S
C594       C1019   1.499       .  S
Fe595       O611   2.049       .  S
Fe595       O601   2.103       .  S
Fe595       O608   2.110       .  S
Fe595       O600   2.036       .  S
Fe595       O606   1.931       .  S
Fe596       O599   2.046       .  S
Fe596       O603   2.092       .  S
Fe596       O607   2.054       .  S
Fe596       O612   2.083       .  S
Fe596       O606   1.933       .  S
Fe597       O615   2.086       .  S
Fe597       O602   2.054       .  S
Fe597       O609   2.056       .  S
Fe597       O598   2.086       .  S
Fe597       O606   1.939       .  S
O598        C605   1.272       .  A
O599        C613   1.268       .  A
O600        C605   1.268       .  A
O601        C604   1.278       .  A
O602        C614   1.270       .  A
O603        C616   1.272       .  A
C604        O609   1.270       .  A
C604        C909   1.485       .  S
C605       C1196   1.474       .  S
O607        C610   1.268       .  A
O608        C610   1.278       .  A
C610        C749   1.481       .  S
O611        C616   1.268       .  A
O612        C614   1.271       .  A
C613        O615   1.273       .  A
C613        C736   1.463       .  S
C614       C1179   1.489       .  S
C616        C976   1.491       .  S
Fe617       O633   2.103       .  S
Fe617       O623   2.040       .  S
Fe617       O630   2.055       .  S
Fe617       O622   2.093       .  S
Fe617       O628   1.938       .  S
Fe618       O621   2.082       .  S
Fe618       O625   2.046       .  S
Fe618       O629   2.076       .  S
Fe618       O634   2.051       .  S
Fe618       O628   1.941       .  S
Fe619       O637   2.050       .  S
Fe619       O624   2.083       .  S
Fe619       O631   2.085       .  S
Fe619       O620   2.048       .  S
Fe619       O628   1.939       .  S
O620        C627   1.267       .  A
O621        C635   1.270       .  A
O622        C627   1.275       .  A
O623        C626   1.269       .  A
O624        C636   1.273       .  A
O625        C638   1.268       .  A
C626        O631   1.272       .  A
C626        C896   1.463       .  S
C627       C1219   1.480       .  S
O629        C632   1.271       .  A
O630        C632   1.267       .  A
C632       C1186   1.480       .  S
O633        C638   1.277       .  A
O634        C636   1.268       .  A
C635        O637   1.270       .  A
C635        C966   1.490       .  S
C636        C739   1.465       .  S
C638        C726   1.477       .  S
Fe639       O655   2.105       .  S
Fe639       O645   2.030       .  S
Fe639       O652   2.049       .  S
Fe639       O644   2.095       .  S
Fe639       O650   1.936       .  S
Fe640       O643   2.098       .  S
Fe640       O647   2.041       .  S
Fe640       O651   2.095       .  S
Fe640       O656   2.029       .  S
Fe640       O650   1.931       .  S
Fe641       O659   2.052       .  S
Fe641       O646   2.095       .  S
Fe641       O653   2.091       .  S
Fe641       O642   2.051       .  S
Fe641       O650   1.940       .  S
O642        C649   1.269       .  A
O643        C657   1.275       .  A
O644        C649   1.274       .  A
O645        C648   1.267       .  A
O646        C658   1.277       .  A
O647        C660   1.268       .  A
C648        O653   1.275       .  A
C648        C919   1.463       .  S
C649       C1089   1.488       .  S
O651        C654   1.273       .  A
O652        C654   1.268       .  A
C654       C1159   1.493       .  S
O655        C660   1.275       .  A
O656        C658   1.264       .  A
C657        O659   1.267       .  A
C657        C836   1.494       .  S
C658        C716   1.469       .  S
C660        C729   1.494       .  S
Fe661       O677   2.050       .  S
Fe661       O667   2.091       .  S
Fe661       O674   2.102       .  S
Fe661       O666   2.033       .  S
Fe661       O672   1.939       .  S
Fe662       O665   2.032       .  S
Fe662       O669   2.094       .  S
Fe662       O673   2.040       .  S
Fe662       O678   2.095       .  S
Fe662       O672   1.937       .  S
Fe663       O681   2.095       .  S
Fe663       O668   2.057       .  S
Fe663       O675   2.054       .  S
Fe663       O664   2.101       .  S
Fe663       O672   1.942       .  S
O664        C671   1.276       .  A
O665        C679   1.266       .  A
O666        C671   1.268       .  A
O667        C670   1.274       .  A
O668        C680   1.269       .  A
O669        C682   1.275       .  A
C670        O675   1.268       .  A
C670        C829   1.482       .  S
C671       C1099   1.482       .  S
O673        C676   1.268       .  A
O674        C676   1.275       .  A
C676        C706   1.480       .  S
O677        C682   1.267       .  A
O678        C680   1.276       .  A
C679        O681   1.275       .  A
C679        C759   1.480       .  S
C680       C1059   1.493       .  S
C682        C889   1.486       .  S
Fe683       O699   2.041       .  S
Fe683       O689   2.107       .  S
Fe683       O696   2.111       .  S
Fe683       O688   2.024       .  S
Fe683       O694   1.934       .  S
Fe684       O687   2.028       .  S
Fe684       O691   2.095       .  S
Fe684       O695   2.036       .  S
Fe684       O700   2.088       .  S
Fe684       O694   1.933       .  S
Fe685       O703   2.090       .  S
Fe685       O690   2.048       .  S
Fe685       O697   2.049       .  S
Fe685       O686   2.086       .  S
Fe685       O694   1.941       .  S
O686        C693   1.273       .  A
O687        C701   1.262       .  A
O688        C693   1.265       .  A
O689        C692   1.278       .  A
O690        C702   1.267       .  A
O691        C704   1.275       .  A
C692        O697   1.268       .  A
C692        C946   1.481       .  S
C693       C1076   1.461       .  S
O695        C698   1.263       .  A
O696        C698   1.278       .  A
C698        C709   1.492       .  S
O699        C704   1.264       .  A
O700        C702   1.275       .  A
C701        O703   1.274       .  A
C701        C719   1.468       .  S
C702       C1149   1.488       .  S
C704        C849   1.494       .  S
C705        C706   1.399       .  A
C705        C710   1.393       .  A
C705        H712   1.085       .  S
C706        C707   1.410       .  A
C707        C708   1.407       .  A
C707       Br714   1.919       .  S
C708        C709   1.410       .  A
C708        H713   1.084       .  S
C709        C710   1.420       .  A
C710       Br711   1.925       .  S
C715        C716   1.404       .  A
C715        C720   1.395       .  A
C715        H722   1.080       .  S
C716        C717   1.411       .  A
C717        C718   1.395       .  A
C717       Br724   1.922       .  S
C718        C719   1.404       .  A
C718        H723   1.080       .  S
C719        C720   1.410       .  A
C720       Br721   1.923       .  S
C725        C726   1.403       .  A
C725        C730   1.407       .  A
C725        H732   1.082       .  S
C726        C727   1.406       .  A
C727        C728   1.394       .  A
C727       Br734   1.922       .  S
C728        C729   1.409       .  A
C728        H733   1.083       .  S
C729        C730   1.420       .  A
C730       Br731   1.921       .  S
C735        C736   1.406       .  A
C735        C740   1.398       .  A
C735        H742   1.085       .  S
C736        C737   1.404       .  A
C737        C738   1.395       .  A
C737       Br744   1.920       .  S
C738        C739   1.405       .  A
C738        H743   1.084       .  S
C739        C740   1.405       .  A
C740       Br741   1.919       .  S
C745        C746   1.403       .  A
C745        C750   1.403       .  A
C745        H752   1.080       .  S
C746        C747   1.411       .  A
C747        C748   1.403       .  A
C747       Br754   1.920       .  S
C748        C749   1.403       .  A
C748        H753   1.080       .  S
C749        C750   1.412       .  A
C750       Br751   1.920       .  S
C755        C756   1.406       .  A
C755        C760   1.393       .  A
C755        H762   1.084       .  S
C756        C757   1.414       .  A
C757        C758   1.396       .  A
C757       Br764   1.924       .  S
C758        C759   1.407       .  A
C758        H763   1.084       .  S
C759        C760   1.413       .  A
C760       Br761   1.923       .  S
C765        C766   1.405   1_554  A
C765        C770   1.394       .  A
C765        H772   1.083       .  S
C766        C767   1.408   1_655  A
C767        C768   1.394       .  A
C767       Br774   1.921       .  S
C768        C769   1.405   1_556  A
C768        H773   1.083       .  S
C769        C770   1.407   1_455  A
C770       Br771   1.922       .  S
C775        C776   1.408       .  A
C775        C780   1.396       .  A
C775        H782   1.082       .  S
C776        C777   1.417       .  A
C777        C778   1.402       .  A
C777       Br784   1.920       .  S
C778        C779   1.402       .  A
C778        H783   1.082       .  S
C779        C780   1.411       .  A
C780       Br781   1.923       .  S
C785        C786   1.408       .  A
C785        C790   1.389       .  A
C785        H792   1.082       .  S
C786        C787   1.413       .  A
C787        C788   1.403       .  A
C787       Br794   1.919   1_556  S
C788        C789   1.406       .  A
C788        H793   1.082       .  S
C789        C790   1.403       .  A
C790       Br791   1.921       .  S
C795        C796   1.410       .  A
C795        C800   1.399       .  A
C795        H802   1.082       .  S
C796        C797   1.418   1_556  A
C797        C798   1.395       .  A
C797       Br804   1.923       .  S
C798        C799   1.403       .  A
C798        H803   1.082       .  S
C799        C800   1.412   1_554  A
C800       Br801   1.923       .  S
C805        C806   1.407       .  A
C805        C810   1.388       .  A
C805        H812   1.087       .  S
C806        C807   1.414       .  A
C807        C808   1.398       .  A
C807       Br814   1.921       .  S
C808        C809   1.402       .  A
C808        H813   1.088       .  S
C809        C810   1.406       .  A
C810       Br811   1.924       .  S
C815        C816   1.405       .  A
C815        C820   1.400       .  A
C815        H822   1.084       .  S
C816        C817   1.410       .  A
C817        C818   1.400       .  A
C817       Br824   1.920       .  S
C818        C819   1.403       .  A
C818        H823   1.084       .  S
C819        C820   1.408       .  A
C820       Br821   1.920       .  S
C825        C826   1.407       .  A
C825        C830   1.398       .  A
C825        H832   1.082       .  S
C826        C827   1.422       .  A
C827        C828   1.401       .  A
C827       Br834   1.924       .  S
C828        C829   1.401       .  A
C828        H833   1.082       .  S
C829        C830   1.412       .  A
C830       Br831   1.921       .  S
C835        C836   1.410       .  A
C835        C840   1.401       .  A
C835        H842   1.084       .  S
C836        C837   1.417       .  A
C837        C838   1.401       .  A
C837       Br844   1.923       .  S
C838        C839   1.403       .  A
C838        H843   1.084       .  S
C839        C840   1.410       .  A
C840       Br841   1.921       .  S
C845        C846   1.401       .  A
C845        C850   1.397       .  A
C845        H852   1.081       .  S
C846        C847   1.411       .  A
C847        C848   1.402       .  A
C847       Br854   1.921       .  S
C848        C849   1.410       .  A
C848        H853   1.080       .  S
C849        C850   1.421       .  A
C850       Br851   1.925       .  S
C855        C856   1.405       .  A
C855        C860   1.398       .  A
C855        H862   1.083       .  S
C856        C857   1.410   1_655  A
C857        C858   1.397       .  A
C857       Br864   1.921       .  S
C858        C859   1.404       .  A
C858        H863   1.083       .  S
C859        C860   1.410   1_455  A
C860       Br861   1.922       .  S
C865        C866   1.405       .  A
C865        C870   1.401       .  A
C865        H872   1.084       .  S
C866        C867   1.410       .  A
C867        C868   1.402       .  A
C867       Br874   1.919       .  S
C868        C869   1.405       .  A
C868        H873   1.084       .  S
C869        C870   1.408       .  A
C870       Br871   1.919       .  S
C875        C876   1.404       .  A
C875        C880   1.402       .  A
C875        H882   1.087       .  S
C876        C877   1.406       .  A
C877        C878   1.396       .  A
C877       Br884   1.921       .  S
C878        C879   1.410       .  A
C878        H883   1.087       .  S
C879        C880   1.418       .  A
C880       Br881   1.922       .  S
C885        C886   1.407       .  A
C885        C890   1.400       .  A
C885        H892   1.083       .  S
C886        C887   1.419       .  A
C887        C888   1.398       .  A
C887       Br894   1.925       .  S
C888        C889   1.404       .  A
C888        H893   1.083       .  S
C889        C890   1.413       .  A
C890       Br891   1.920       .  S
C895        C896   1.405       .  A
C895        C900   1.402       .  A
C895        H902   1.086       .  S
C896        C897   1.401       .  A
C897        C898   1.389       .  A
C897       Br904   1.921       .  S
C898        C899   1.407       .  A
C898        H903   1.087       .  S
C899        C900   1.411       .  A
C900       Br901   1.917       .  S
C905        C906   1.412       .  A
C905        C910   1.403       .  A
C905        H912   1.082       .  S
C906        C907   1.418       .  A
C907        C908   1.402       .  A
C907       Br914   1.920       .  S
C908        C909   1.404       .  A
C908        H913   1.083       .  S
C909        C910   1.409       .  A
C910       Br911   1.921       .  S
C915        C916   1.408       .  A
C915        C920   1.389       .  A
C915        H922   1.080       .  S
C916        C917   1.414       .  A
C917        C918   1.399       .  A
C917       Br924   1.920       .  S
C918        C919   1.403       .  A
C918        H923   1.081       .  S
C919        C920   1.404       .  A
C920       Br921   1.923       .  S
C925        C926   1.404       .  A
C925        C930   1.393       .  A
C925        H932   1.086       .  S
C926        C927   1.414       .  A
C927        C928   1.392       .  A
C927       Br934   1.924       .  S
C928        C929   1.404       .  A
C928        H933   1.086       .  S
C929        C930   1.413       .  A
C930       Br931   1.922       .  S
C935        C936   1.401       .  A
C935        C940   1.403       .  A
C935        H942   1.080       .  S
C936        C937   1.406       .  A
C937        C938   1.402       .  A
C937       Br944   1.919       .  S
C938        C939   1.406       .  A
C938        H943   1.080       .  S
C939        C940   1.418       .  A
C940       Br941   1.923       .  S
C945        C946   1.405       .  A
C945        C950   1.405       .  A
C945        H952   1.081       .  S
C946        C947   1.407       .  A
C947        C948   1.399       .  A
C947       Br954   1.921       .  S
C948        C949   1.410       .  A
C948        H953   1.081       .  S
C949        C950   1.416       .  A
C950       Br951   1.921       .  S
C955        C956   1.404       .  A
C955        C960   1.393       .  A
C955        H962   1.085       .  S
C956        C957   1.413       .  A
C957        C958   1.395       .  A
C957       Br964   1.922       .  S
C958        C959   1.405       .  A
C958        H963   1.085       .  S
C959        C960   1.413       .  A
C960       Br961   1.922       .  S
C965        C966   1.407       .  A
C965        C970   1.396       .  A
C965        H972   1.080       .  S
C966        C967   1.421       .  A
C967        C968   1.401       .  A
C967       Br974   1.925       .  S
C968        C969   1.402       .  A
C968        H973   1.080       .  S
C969        C970   1.411       .  A
C970       Br971   1.922       .  S
C975        C976   1.408       .  A
C975        C980   1.401       .  A
C975        H982   1.083       .  S
C976        C977   1.415       .  A
C977        C978   1.399       .  A
C977       Br984   1.923       .  S
C978        C979   1.407       .  A
C978        H983   1.083       .  S
C979        C980   1.416       .  A
C980       Br981   1.923       .  S
C985        C986   1.407       .  A
C985        C990   1.396       .  A
C985        H992   1.083       .  S
C986        C987   1.413   1_556  A
C987        C988   1.393       .  A
C987       Br994   1.924       .  S
C988        C989   1.406       .  A
C988        H993   1.084       .  S
C989        C990   1.413   1_554  A
C990       Br991   1.924       .  S
C995        C996   1.403       .  A
C995       C1000   1.401       .  A
C995       H1002   1.079       .  S
C996        C997   1.412       .  A
C997        C998   1.400       .  A
C997      Br1004   1.921       .  S
C998        C999   1.401       .  A
C998       H1003   1.079       .  S
C999       C1000   1.411       .  A
C1000     Br1001   1.920       .  S
C1005      C1006   1.408       .  A
C1005      C1010   1.398   1_556  A
C1005      H1012   1.085       .  S
C1006      C1007   1.421       .  A
C1007      C1008   1.402       .  A
C1007     Br1014   1.922       .  S
C1008      C1009   1.403   1_556  A
C1008      H1013   1.084       .  S
C1009      C1010   1.412       .  A
C1010     Br1011   1.923       .  S
C1015      C1016   1.404       .  A
C1015      C1020   1.403       .  A
C1015      H1022   1.081       .  S
C1016      C1017   1.413       .  A
C1017      C1018   1.401       .  A
C1017     Br1024   1.921       .  S
C1018      C1019   1.408       .  A
C1018      H1023   1.080       .  S
C1019      C1020   1.422       .  A
C1020     Br1021   1.924       .  S
C1025      C1026   1.408       .  A
C1025      C1030   1.399   1_554  A
C1025      H1032   1.083       .  S
C1026      C1027   1.423       .  A
C1027      C1028   1.403       .  A
C1027     Br1034   1.924       .  S
C1028      C1029   1.402   1_554  A
C1028      H1033   1.083       .  S
C1029      C1030   1.408       .  A
C1030     Br1031   1.919       .  S
C1035      C1036   1.406       .  A
C1035      C1040   1.400       .  A
C1035      H1042   1.084       .  S
C1036      C1037   1.414       .  A
C1037      C1038   1.400       .  A
C1037     Br1044   1.921       .  S
C1038      C1039   1.409       .  A
C1038      H1043   1.083       .  S
C1039      C1040   1.417       .  A
C1040     Br1041   1.923       .  S
C1045      C1046   1.406       .  A
C1045      C1050   1.404       .  A
C1045      H1052   1.078       .  S
C1046      C1047   1.417       .  A
C1047      C1048   1.404       .  A
C1047     Br1054   1.922       .  S
C1048      C1049   1.402       .  A
C1048      H1053   1.078       .  S
C1049      C1050   1.409       .  A
C1050     Br1051   1.919       .  S
C1055      C1056   1.404       .  A
C1055      C1060   1.404       .  A
C1055      H1062   1.080       .  S
C1056      C1057   1.407       .  A
C1057      C1058   1.402       .  A
C1057     Br1064   1.919       .  S
C1058      C1059   1.411       .  A
C1058      H1063   1.080       .  S
C1059      C1060   1.415       .  A
C1060     Br1061   1.920       .  S
C1065      C1066   1.404       .  A
C1065      C1070   1.399       .  A
C1065      H1072   1.083       .  S
C1066      C1067   1.415       .  A
C1067      C1068   1.399       .  A
C1067     Br1074   1.923       .  S
C1068      C1069   1.407       .  A
C1068      H1073   1.082       .  S
C1069      C1070   1.419       .  A
C1070     Br1071   1.924       .  S
C1075      C1076   1.404       .  A
C1075      C1080   1.399       .  A
C1075      H1082   1.086       .  S
C1076      C1077   1.404       .  A
C1077      C1078   1.385       .  A
C1077     Br1084   1.925       .  S
C1078      C1079   1.407       .  A
C1078      H1083   1.086       .  S
C1079      C1080   1.411       .  A
C1080     Br1081   1.919       .  S
C1085      C1086   1.409       .  A
C1085      C1090   1.399       .  A
C1085      H1092   1.083       .  S
C1086      C1087   1.419       .  A
C1087      C1088   1.400       .  A
C1087     Br1094   1.923       .  S
C1088      C1089   1.405       .  A
C1088      H1093   1.083       .  S
C1089      C1090   1.414       .  A
C1090     Br1091   1.923       .  S
C1095      C1096   1.404       .  A
C1095      C1100   1.403       .  A
C1095      H1102   1.083       .  S
C1096      C1097   1.404       .  A
C1097      C1098   1.390       .  A
C1097     Br1104   1.919       .  S
C1098      C1099   1.408       .  A
C1098      H1103   1.083       .  S
C1099      C1100   1.414       .  A
C1100     Br1101   1.919       .  S
C1105      C1106   1.405       .  A
C1105      C1110   1.397       .  A
C1105      H1112   1.083       .  S
C1106      C1107   1.413       .  A
C1107      C1108   1.397       .  A
C1107     Br1114   1.919       .  S
C1108      C1109   1.405       .  A
C1108      H1113   1.083       .  S
C1109      C1110   1.414       .  A
C1110     Br1111   1.921       .  S
C1115      C1116   1.405       .  A
C1115      C1120   1.403       .  A
C1115      H1122   1.083       .  S
C1116      C1117   1.407       .  A
C1117      C1118   1.400       .  A
C1117     Br1124   1.918       .  S
C1118      C1119   1.406       .  A
C1118      H1123   1.084       .  S
C1119      C1120   1.412       .  A
C1120     Br1121   1.920       .  S
C1125      C1126   1.412       .  A
C1125      C1130   1.404       .  A
C1125      H1132   1.082       .  S
C1126      C1127   1.418       .  A
C1127      C1128   1.399       .  A
C1127     Br1134   1.922       .  S
C1128      C1129   1.405       .  A
C1128      H1133   1.082       .  S
C1129      C1130   1.415       .  A
C1130     Br1131   1.923       .  S
C1135      C1136   1.405       .  A
C1135      C1140   1.400       .  A
C1135      H1142   1.084       .  S
C1136      C1137   1.409       .  A
C1137      C1138   1.396       .  A
C1137     Br1144   1.919       .  S
C1138      C1139   1.404       .  A
C1138      H1143   1.086       .  S
C1139      C1140   1.410       .  A
C1140     Br1141   1.920       .  S
C1145      C1146   1.404       .  A
C1145      C1150   1.399       .  A
C1145      H1152   1.081       .  S
C1146      C1147   1.406       .  A
C1147      C1148   1.397       .  A
C1147     Br1154   1.920       .  S
C1148      C1149   1.410       .  A
C1148      H1153   1.080       .  S
C1149      C1150   1.417       .  A
C1150     Br1151   1.924       .  S
C1155      C1156   1.405       .  A
C1155      C1160   1.399       .  A
C1155      H1162   1.083       .  S
C1156      C1157   1.414       .  A
C1157      C1158   1.400       .  A
C1157     Br1164   1.924       .  S
C1158      C1159   1.409       .  A
C1158      H1163   1.083       .  S
C1159      C1160   1.416       .  A
C1160     Br1161   1.922       .  S
C1165      C1166   1.402       .  A
C1165      C1170   1.398       .  A
C1165      H1172   1.081       .  S
C1166      C1167   1.411       .  A
C1167      C1168   1.396       .  A
C1167     Br1174   1.921       .  S
C1168      C1169   1.399       .  A
C1168      H1173   1.080       .  S
C1169      C1170   1.410       .  A
C1170     Br1171   1.921       .  S
C1175      C1176   1.405       .  A
C1175      C1180   1.398       .  A
C1175      H1182   1.083       .  S
C1176      C1177   1.415       .  A
C1177      C1178   1.398       .  A
C1177     Br1184   1.923       .  S
C1178      C1179   1.407       .  A
C1178      H1183   1.083       .  S
C1179      C1180   1.417       .  A
C1180     Br1181   1.923       .  S
C1185      C1186   1.404       .  A
C1185      C1190   1.394       .  A
C1185      H1192   1.081       .  S
C1186      C1187   1.411       .  A
C1187      C1188   1.399       .  A
C1187     Br1194   1.920       .  S
C1188      C1189   1.407       .  A
C1188      H1193   1.080       .  S
C1189      C1190   1.417       .  A
C1190     Br1191   1.926       .  S
C1195      C1196   1.404       .  A
C1195      C1200   1.387       .  A
C1195      H1202   1.083       .  S
C1196      C1197   1.413       .  A
C1197      C1198   1.401       .  A
C1197     Br1204   1.920       .  S
C1198      C1199   1.404       .  A
C1198      H1203   1.083       .  S
C1199      C1200   1.403       .  A
C1200     Br1201   1.916       .  S
C1205      C1206   1.405       .  A
C1205      C1210   1.396       .  A
C1205      H1212   1.082       .  S
C1206      C1207   1.412   1_655  A
C1207      C1208   1.398       .  A
C1207     Br1214   1.923       .  S
C1208      C1209   1.406       .  A
C1208      H1213   1.081       .  S
C1209      C1210   1.411   1_455  A
C1210     Br1211   1.923       .  S
C1215      C1216   1.409       .  A
C1215      C1220   1.397       .  A
C1215      H1222   1.081       .  S
C1216      C1217   1.417       .  A
C1217      C1218   1.400       .  A
C1217     Br1224   1.924       .  S
C1218      C1219   1.405       .  A
C1218      H1223   1.082       .  S
C1219      C1220   1.409       .  A
C1220     Br1221   1.921       .  S
C1225      C1226   1.406       .  A
C1225      C1230   1.406       .  A
C1225      H1232   1.085       .  S
C1226      C1227   1.402       .  A
C1227      C1228   1.388       .  A
C1227     Br1234   1.913       .  S
C1228      C1229   1.404       .  A
C1228      H1233   1.085       .  S
C1229      C1230   1.413       .  A
C1230     Br1231   1.919       .  S
C1235      C1236   1.404       .  A
C1235      C1240   1.391       .  A
C1235      H1242   1.082       .  S
C1236      C1237   1.413   1_556  A
C1237      C1238   1.395       .  A
C1237     Br1244   1.923       .  S
C1238      C1239   1.406       .  A
C1238      H1243   1.083       .  S
C1239      C1240   1.413   1_554  A
C1240     Br1241   1.924       .  S
C1245      C1246   1.404       .  A
C1245      C1250   1.405       .  A
C1245      H1252   1.079       .  S
C1246      C1247   1.413       .  A
C1247      C1248   1.402       .  A
C1247     Br1254   1.918       .  S
C1248      C1249   1.402       .  A
C1248      H1253   1.079       .  S
C1249      C1250   1.414       .  A
C1250     Br1251   1.920       .  S
C1255      C1256   1.411       .  A
C1255      C1260   1.398       .  A
C1255      H1262   1.085       .  S
C1256      C1257   1.417       .  A
C1257      C1258   1.402   1_554  A
C1257     Br1264   1.922       .  S
C1258      C1259   1.405       .  A
C1258      H1263   1.085       .  S
C1259      C1260   1.409   1_556  A
C1260     Br1261   1.922       .  S
C1265      C1266   1.409       .  A
C1265      C1270   1.389       .  A
C1265      H1272   1.086       .  S
C1266      C1267   1.417       .  A
C1267      C1268   1.400       .  A
C1267     Br1274   1.922       .  S
C1268      C1269   1.403       .  A
C1268      H1273   1.086       .  S
C1269      C1270   1.407       .  A
C1270     Br1271   1.925       .  S
C1275      C1276   1.412       .  A
C1275      C1280   1.398       .  A
C1275      H1282   1.084       .  S
C1276      C1277   1.416       .  A
C1277      C1278   1.400       .  A
C1277     Br1284   1.923       .  S
C1278      C1279   1.405       .  A
C1278      H1283   1.084       .  S
C1279      C1280   1.408       .  A
C1280     Br1281   1.921   1_565  S
C1285      C1286   1.406       .  A
C1285      C1290   1.397       .  A
C1285      H1292   1.083       .  S
C1286      C1287   1.416       .  A
C1287      C1288   1.398       .  A
C1287     Br1294   1.924       .  S
C1288      C1289   1.405       .  A
C1288      H1293   1.083       .  S
C1289      C1290   1.415       .  A
C1290     Br1291   1.924       .  S
C1295      C1296   1.405       .  A
C1295      C1300   1.398       .  A
C1295      H1302   1.084       .  S
C1296      C1297   1.413       .  A
C1297      C1298   1.396       .  A
C1297     Br1304   1.923       .  S
C1298      C1299   1.407       .  A
C1298      H1303   1.083       .  S
C1299      C1300   1.416       .  A
C1300     Br1301   1.923       .  S
C1305      C1306   1.403       .  A
C1305      C1310   1.398       .  A
C1305      H1312   1.084       .  S
C1306      C1307   1.399       .  A
C1307      C1308   1.391       .  A
C1307     Br1314   1.919       .  S
C1308      C1309   1.407       .  A
C1308      H1313   1.082       .  S
C1309      C1310   1.406       .  A
C1310     Br1311   1.912       .  S
C1315      C1316   1.404       .  A
C1315      C1320   1.400       .  A
C1315      H1322   1.084       .  S
C1316      C1317   1.416       .  A
C1317      C1318   1.398       .  A
C1317     Br1324   1.922       .  S
C1318      C1319   1.398       .  A
C1318      H1323   1.085       .  S
C1319      C1320   1.407       .  A
C1320     Br1321   1.920       .  S
C1325      C1326   1.407       .  A
C1325      C1330   1.398       .  A
C1325      H1332   1.082       .  S
C1326      C1327   1.416       .  A
C1327      C1328   1.401       .  A
C1327     Br1334   1.922       .  S
C1328      C1329   1.406       .  A
C1328      H1333   1.082   1_565  S
C1329      C1330   1.416       .  A
C1330     Br1331   1.924       .  S
C1335      C1336   1.403       .  A
C1335      C1340   1.399       .  A
C1335      H1342   1.088       .  S
C1336      C1337   1.410       .  A
C1337      C1338   1.402       .  A
C1337     Br1344   1.921       .  S
C1338      C1339   1.412       .  A
C1338      H1343   1.087       .  S
C1339      C1340   1.417       .  A
C1340     Br1341   1.922       .  S
C1345      C1346   1.409       .  A
C1345      C1350   1.405       .  A
C1345      H1352   1.083       .  S
C1346      C1347   1.416       .  A
C1347      C1348   1.404       .  A
C1347     Br1354   1.921       .  S
C1348      C1349   1.410       .  A
C1348      H1353   1.083       .  S
C1349      C1350   1.418       .  A
C1350     Br1351   1.923       .  S
C1355      C1356   1.410       .  A
C1355      C1360   1.391       .  A
C1355      H1362   1.086       .  S
C1356      C1357   1.416       .  A
C1357      C1358   1.399       .  A
C1357     Br1364   1.921       .  S
C1358      C1359   1.402       .  A
C1358      H1363   1.088       .  S
C1359      C1360   1.406       .  A
C1360     Br1361   1.924       .  S
C1365      C1366   1.405       .  A
C1365      C1370   1.402   1_556  A
C1365      H1372   1.082       .  S
C1366      C1367   1.409   1_556  A
C1367      C1368   1.400       .  A
C1367     Br1374   1.921       .  S
C1368      C1369   1.411       .  A
C1368      H1373   1.080       .  S
C1369      C1370   1.417       .  A
C1370     Br1371   1.922       .  S
C1375      C1376   1.403       .  A
C1375      C1380   1.398       .  A
C1375      H1382   1.081       .  S
C1376      C1377   1.412       .  A
C1377      C1378   1.396       .  A
C1377     Br1384   1.923       .  S
C1378      C1379   1.406       .  A
C1378      H1383   1.081       .  S
C1379      C1380   1.418       .  A
C1380     Br1381   1.924       .  S
C1385      C1386   1.402       .  A
C1385      C1390   1.399   1_554  A
C1385      H1392   1.082       .  S
C1386      C1387   1.409   1_554  A
C1387      C1388   1.400       .  A
C1387     Br1394   1.921   1_545  S
C1388      C1389   1.411       .  A
C1388      H1393   1.082       .  S
C1389      C1390   1.415       .  A
C1390     Br1391   1.922       .  S
C1395      C1396   1.406       .  A
C1395      C1400   1.389       .  A
C1395      H1402   1.083       .  S
C1396      C1397   1.418       .  A
C1397      C1398   1.403       .  A
C1397     Br1404   1.921       .  S
C1398      C1399   1.403       .  A
C1398      H1403   1.084       .  S
C1399      C1400   1.408       .  A
C1400     Br1401   1.923       .  S
C1405      C1406   1.402       .  A
C1405      C1410   1.391   1_565  A
C1405      H1412   1.085       .  S
C1406      C1407   1.414       .  A
C1407      C1408   1.392   1_565  A
C1407     Br1414   1.923       .  S
C1408      C1409   1.403       .  A
C1408      H1413   1.086       .  S
C1409      C1410   1.416       .  A
C1410     Br1411   1.924       .  S
C1415      C1416   1.405       .  A
C1415      C1420   1.402       .  A
C1415      H1422   1.084       .  S
C1416      C1417   1.407       .  A
C1417      C1418   1.400       .  A
C1417     Br1424   1.918       .  S
C1418      C1419   1.406       .  A
C1418      H1423   1.084       .  S
C1419      C1420   1.409       .  A
C1420     Br1421   1.919       .  S
C1425      C1426   1.401       .  A
C1425      C1430   1.397       .  A
C1425      H1432   1.086       .  S
C1426      C1427   1.410       .  A
C1427      C1428   1.400       .  A
C1427     Br1434   1.921       .  S
C1428      C1429   1.410       .  A
C1428      H1433   1.085       .  S
C1429      C1430   1.418       .  A
C1430     Br1431   1.917       .  S
C1435      C1436   1.406       .  A
C1435      C1440   1.399       .  A
C1435      H1442   1.081       .  S
C1436      C1437   1.418       .  A
C1437      C1438   1.399       .  A
C1437     Br1444   1.923       .  S
C1438      C1439   1.404       .  A
C1438      H1443   1.081       .  S
C1439      C1440   1.415       .  A
C1440     Br1441   1.923       .  S
C1445      C1446   1.403       .  A
C1445      C1450   1.399       .  A
C1445      H1452   1.082   1_545  S
C1446      C1447   1.413       .  A
C1447      C1448   1.396       .  A
C1447     Br1454   1.923       .  S
C1448      C1449   1.407       .  A
C1448      H1453   1.082       .  S
C1449      C1450   1.420       .  A
C1450     Br1451   1.924       .  S
C1455      C1456   1.408       .  A
C1455      C1460   1.390       .  A
C1455      H1462   1.084       .  S
C1456      C1457   1.417       .  A
C1457      C1458   1.406       .  A
C1457     Br1464   1.920       .  S
C1458      C1459   1.406       .  A
C1458      H1463   1.084       .  S
C1459      C1460   1.405       .  A
C1460     Br1461   1.918       .  S
C1465      C1466   1.403       .  A
C1465      C1470   1.401       .  A
C1465      H1472   1.090       .  S
C1466      C1467   1.409       .  A
C1467      C1468   1.399       .  A
C1467     Br1474   1.922   1_565  S
C1468      C1469   1.410       .  A
C1468      H1473   1.091       .  S
C1469      C1470   1.416       .  A
C1470     Br1471   1.921       .  S
C1475      C1476   1.413       .  A
C1475      C1480   1.403       .  A
C1475      H1482   1.081       .  S
C1476      C1477   1.416       .  A
C1477      C1478   1.394       .  A
C1477     Br1484   1.923       .  S
C1478      C1479   1.402       .  A
C1478      H1483   1.083       .  S
C1479      C1480   1.408       .  A
C1480     Br1481   1.920       .  S
C1485      C1486   1.405       .  A
C1485      C1490   1.403       .  A
C1485      H1492   1.081       .  S
C1486      C1487   1.416       .  A
C1487      C1488   1.402       .  A
C1487     Br1494   1.922       .  S
C1488      C1489   1.406       .  A
C1488      H1493   1.082       .  S
C1489      C1490   1.418       .  A
C1490     Br1491   1.923       .  S
C1495      C1496   1.405       .  A
C1495      C1500   1.403       .  A
C1495      H1502   1.081       .  S
C1496      C1497   1.405       .  A
C1497      C1498   1.389       .  A
C1497     Br1504   1.924       .  S
C1498      C1499   1.408       .  A
C1498      H1503   1.082       .  S
C1499      C1500   1.416       .  A
C1500     Br1501   1.920   1_554  S
C1505      C1506   1.408   1_554  A
C1505      C1510   1.401   1_545  A
C1505      H1512   1.083       .  S
C1506      C1507   1.408       .  A
C1507      C1508   1.396   1_546  A
C1507     Br1514   1.920       .  S
C1508      C1509   1.404       .  A
C1508      H1513   1.084       .  S
C1509      C1510   1.408       .  A
C1510     Br1511   1.920       .  S
C1515      C1516   1.406       .  A
C1515      C1520   1.400       .  A
C1515      H1522   1.084       .  S
C1516      C1517   1.412       .  A
C1517      C1518   1.404       .  A
C1517     Br1524   1.920       .  S
C1518      C1519   1.405       .  A
C1518      H1523   1.084       .  S
C1519      C1520   1.406       .  A
C1520     Br1521   1.918       .  S
C1525      C1526   1.411   1_554  A
C1525      C1530   1.405       .  A
C1525      H1532   1.081   1_565  S
C1526      C1527   1.417       .  A
C1527      C1528   1.398   1_556  A
C1527     Br1534   1.925       .  S
C1528      C1529   1.407       .  A
C1528      H1533   1.082   1_554  S
C1529      C1530   1.415       .  A
C1530     Br1531   1.921       .  S
C1535      C1536   1.406       .  A
C1535      C1540   1.405   1_554  A
C1535      H1542   1.083       .  S
C1536      C1537   1.406   1_554  A
C1537      C1538   1.399       .  A
C1537     Br1544   1.921   1_556  S
C1538      C1539   1.411       .  A
C1538      H1543   1.084       .  S
C1539      C1540   1.415       .  A
C1540     Br1541   1.920       .  S
C1545      C1546   1.408       .  A
C1545      C1550   1.398       .  A
C1545      H1552   1.083       .  S
C1546      C1547   1.415       .  A
C1547      C1548   1.398       .  A
C1547     Br1554   1.923       .  S
C1548      C1549   1.406       .  A
C1548      H1553   1.083       .  S
C1549      C1550   1.414       .  A
C1550     Br1551   1.923       .  S
C1555      C1556   1.404       .  A
C1555      C1560   1.403       .  A
C1555      H1562   1.085       .  S
C1556      C1557   1.406       .  A
C1557      C1558   1.388       .  A
C1557     Br1564   1.920       .  S
C1558      C1559   1.407       .  A
C1558      H1563   1.084       .  S
C1559      C1560   1.417       .  A
C1560     Br1561   1.921       .  S
C1565      C1566   1.404       .  A
C1565      C1570   1.394   1_545  A
C1565      H1572   1.083       .  S
C1566      C1567   1.412       .  A
C1567      C1568   1.394   1_545  A
C1567     Br1574   1.920       .  S
C1568      C1569   1.404       .  A
C1568      H1573   1.083       .  S
C1569      C1570   1.413       .  A
C1570     Br1571   1.922       .  S
C1575      C1576   1.403       .  A
C1575      C1580   1.404       .  A
C1575      H1582   1.084       .  S
C1576      C1577   1.414       .  A
C1577      C1578   1.399       .  A
C1577     Br1584   1.923       .  S
C1578      C1579   1.407       .  A
C1578      H1583   1.083       .  S
C1579      C1580   1.422       .  A
C1580     Br1581   1.923       .  S
C1585      C1586   1.403       .  A
C1585      C1590   1.404       .  A
C1585      H1592   1.083       .  S
C1586      C1587   1.413       .  A
C1587      C1588   1.403       .  A
C1587     Br1594   1.920       .  S
C1588      C1589   1.408       .  A
C1588      H1593   1.082       .  S
C1589      C1590   1.425       .  A
C1590     Br1591   1.926       .  S
C1595      C1596   1.408       .  A
C1595      C1600   1.401       .  A
C1595      H1602   1.083       .  S
C1596      C1597   1.415       .  A
C1597      C1598   1.406       .  A
C1597     Br1604   1.921       .  S
C1598      C1599   1.411       .  A
C1598      H1603   1.083   1_545  S
C1599      C1600   1.418       .  A
C1600     Br1601   1.923       .  S
C1605      C1606   1.401       .  A
C1605      C1610   1.389       .  A
C1605      H1612   1.081       .  S
C1606      C1607   1.410       .  A
C1607      C1608   1.404       .  A
C1607     Br1614   1.919       .  S
C1608      C1609   1.411       .  A
C1608      H1613   1.076       .  S
C1609      C1610   1.419       .  A
C1610     Br1611   1.928       .  S
C1615      C1616   1.404   1_655  A
C1615      C1620   1.394   1_565  A
C1615      H1622   1.087       .  S
C1616      C1617   1.412       .  A
C1617      C1618   1.395   1_565  A
C1617     Br1624   1.922       .  S
C1618      C1619   1.405   1_455  A
C1618      H1623   1.087       .  S
C1619      C1620   1.413       .  A
C1620     Br1621   1.921       .  S
C1625      C1626   1.401       .  A
C1625      C1630   1.401       .  A
C1625      H1632   1.080       .  S
C1626      C1627   1.412       .  A
C1627      C1628   1.402       .  A
C1627     Br1634   1.922       .  S
C1628      C1629   1.403       .  A
C1628      H1633   1.080       .  S
C1629      C1630   1.411       .  A
C1630     Br1631   1.920       .  S
C1635      C1636   1.403       .  A
C1635      C1640   1.399       .  A
C1635      H1642   1.081       .  S
C1636      C1637   1.407       .  A
C1637      C1638   1.402       .  A
C1637     Br1644   1.921       .  S
C1638      C1639   1.413       .  A
C1638      H1643   1.082       .  S
C1639      C1640   1.412       .  A
C1640     Br1641   1.920       .  S
C1645      C1646   1.408       .  A
C1645      C1650   1.397       .  A
C1645      H1652   1.083       .  S
C1646      C1647   1.414       .  A
C1647      C1648   1.399       .  A
C1647     Br1654   1.923       .  S
C1648      C1649   1.408       .  A
C1648      H1653   1.084       .  S
C1649      C1650   1.413       .  A
C1650     Br1651   1.923       .  S
C1655      C1656   1.406       .  A
C1655      C1660   1.401       .  A
C1655      H1662   1.084       .  S
C1656      C1657   1.406       .  A
C1657      C1658   1.396       .  A
C1657     Br1664   1.920   1_545  S
C1658      C1659   1.410       .  A
C1658      H1663   1.084       .  S
C1659      C1660   1.414       .  A
C1660     Br1661   1.922       .  S
