geometry optimzed in LAMMPS
_audit_creation_date              2020-12-01 
_audit_creation_method            'lammps2cif' 
_symmetry_space_group_name_H-M    'P1' 
_symmetry_Int_Tables_number       1 
_symmetry_cell_setting            triclinic 
loop_ 
_symmetry_equiv_pos_as_xyz 
  x,y,z 
_cell_length_a                    33.63803643 
_cell_length_b                    34.80467292065758 
_cell_length_c                    36.55588388031121 
_cell_angle_alpha                 89.99913281690246 
_cell_angle_beta                  118.20204866448395 
_cell_angle_gamma                 90.00197405199506 
loop_ 
_atom_site_label 
_atom_site_type_symbol 
_atom_site_fract_x 
_atom_site_fract_y 
_atom_site_fract_z 
_atom_site_charge 
Fe1        Fe  0.10639803  0.21529806  0.23326931     1.65800
Fe2        Fe  0.13264375  0.14285866  0.18991783     1.73200
Fe3        Fe  0.03527391  0.18974953  0.13699755     1.54400
O4          O  0.00332274  0.21282038  0.17130083    -0.79300
O5          O  0.13550843  0.16290762  0.13933762    -0.77700
O6          O  0.05161156  0.19251488  0.23318956    -0.81900
O7          O  0.06973093  0.26239174  0.19416294    -0.76700
O8          O  0.01572583  0.13647832  0.14339117    -0.78500
O9          O  0.19008287  0.17902912  0.22535592    -0.81200
C10         C  0.05265580  0.26860348  0.15500521     0.99500
C11         C  0.01654355  0.21032790  0.21032654     1.07000
O12         O  0.09261639  0.18342591  0.18601827    -1.10200
O13         O  0.12839777  0.11976225  0.23937960    -0.72600
O14         O  0.14124864  0.17244097  0.27689150    -0.76100
O15         O  0.05377980  0.24360466  0.13048546    -0.76800
C16         C  0.13220446  0.13673102  0.27128031     0.98400
O17         O  0.16277868  0.23546428  0.23322802    -0.74800
O18         O  0.07787197  0.10517153  0.15273534    -0.80000
C19         C  0.10170195  0.16110067  0.10386282     1.01100
C20         C  0.03523878  0.10649703  0.14073844     1.07000
O21         O  0.06146738  0.16770476  0.09788065    -0.75600
C22         C  0.19395050  0.21550180  0.23279245     1.05300
Fe23       Fe  0.10641702  0.02878620  0.48331201     1.65800
Fe24       Fe  0.13271510  0.10117405  0.43993319     1.73200
Fe25       Fe  0.03524889  0.05440619  0.38708758     1.54400
O26         O  0.05363003  0.50052802  0.38051168    -0.79300
O27         O  0.07799365  0.13891214  0.40277378    -0.77700
O28         O  0.06963782  0.48172695  0.44420127    -0.81900
O29         O  0.05170823  0.05164357  0.48331606    -0.76700
O30         O  0.06141276  0.07640337  0.34792863    -0.78500
O31         O  0.12854864  0.12430272  0.98942155    -0.81200
C32         C  0.01659157  0.03388148  0.46047143     0.99500
C33         C  0.05251989  0.47552794  0.40503675     1.07000
O34         O  0.09263715  0.06065953  0.43606482    -1.10200
O35         O  0.19010763  0.06494855  0.47533601    -0.72600
O36         O  0.16273103  0.00854480  0.48319537    -0.76100
O37         O  0.00332488  0.03138795  0.42143809    -0.76800
C38         C  0.19392349  0.02847207  0.48275025     0.98400
O39         O  0.14137469  0.07162109  0.02692384    -0.74800
O40         O  0.13547991  0.08108432  0.38932009    -0.80000
C41         C  0.03536787  0.13764311  0.39081905     1.01100
C42         C  0.10164345  0.08294685  0.35386736     1.07000
O43         O  0.01583308  0.10770711  0.39354908    -0.75600
C44         C  0.13234418  0.10733370  0.02131928     1.05300
Fe45       Fe  0.39403444  0.27878109  0.25473821     1.65800
Fe46       Fe  0.36774333  0.35116907  0.29811639     1.73200
Fe47       Fe  0.46520827  0.30440395  0.35096097     1.54400
O48         O  0.44682685  0.25052520  0.35753915    -0.79300
O49         O  0.42246648  0.38890783  0.33527579    -0.77700
O50         O  0.43081528  0.23172343  0.29384929    -0.81900
O51         O  0.44874172  0.30164101  0.25473038    -0.76700
O52         O  0.43904579  0.32640059  0.39012103    -0.78500
O53         O  0.37190911  0.37429732  0.24862700    -0.81200
C54         C  0.48385854  0.28387995  0.27757309     0.99500
C55         C  0.44793645  0.22552552  0.33301431     1.07000
O56         O  0.40781874  0.31065522  0.30198497    -1.10200
O57         O  0.31034829  0.31494408  0.26271290    -0.72600
O58         O  0.33772097  0.25853852  0.25485853    -0.76100
O59         O  0.49712849  0.28138673  0.31660724    -0.76800
C60         C  0.30652885  0.27846750  0.25529963     0.98400
O61         O  0.35907497  0.32161436  0.21112553    -0.74800
O62         O  0.36497856  0.33107796  0.34872921    -0.80000
C63         C  0.46509198  0.38764033  0.34722976     1.01100
C64         C  0.39881483  0.33294236  0.38418190     1.07000
O65         O  0.48462525  0.35770552  0.34449793    -0.75600
C66         C  0.36810593  0.35732754  0.21672734     1.05300
Fe67       Fe  0.39403845  0.46529287  0.00476235     1.65800
Fe68       Fe  0.36778633  0.39285315  0.04811422     1.73200
Fe69       Fe  0.46515814  0.43974609  0.10103485     1.54400
O70         O  0.49711209  0.46281832  0.06673413    -0.79300
O71         O  0.36492246  0.41290039  0.09869510    -0.77700
O72         O  0.44882557  0.44251202  0.00484457    -0.81900
O73         O  0.43070471  0.01238780  0.04386867    -0.76700
O74         O  0.48470373  0.38647555  0.09464097    -0.78500
O75         O  0.31034979  0.42902426  0.01267741    -0.81200
C76         C  0.44777754  0.01860029  0.08302604     0.99500
C77         C  0.48389375  0.46032578  0.02770911     1.07000
O78         O  0.40781610  0.43342128  0.05201365    -1.10200
O79         O  0.37203252  0.36975672  0.49865300    -0.72600
O80         O  0.35918883  0.42243455  0.46114091    -0.76100
O81         O  0.44665402  0.49360074  0.10754623    -0.76800
C82         C  0.36823354  0.38672528  0.46675452     0.98400
O83         O  0.33765784  0.48545791  0.00480099    -0.74800
O84         O  0.42255632  0.35516653  0.08529624    -0.80400
C85         C  0.39872946  0.41109490  0.13416972     1.01100
C86         C  0.46518966  0.35649342  0.09729320     1.07000
O87         O  0.43896374  0.41770047  0.14015111    -0.75600
C88         C  0.30648579  0.46549693  0.00524056     1.05300
C89         C  0.39028163  0.34776344  0.41662220    -0.10900
C90         C  0.37814040  0.36509456  0.43834692    -0.12500
C91         C  0.37801067  0.37895704  0.18831595    -0.10900
C92         C  0.39016542  0.39628362  0.16659702    -0.12500
C93         C  0.23458255  0.00760106  0.49091819    -0.10900
C94         C  0.26579791  0.48633094  0.49705035    -0.12500
C95         C  0.00173127  0.00813995  0.48204435    -0.10900
C96         C  0.49873184  0.48611442  0.00615763    -0.12500
C97         C  0.49421303  0.41966897  0.36756978    -0.10900
C98         C  0.02316328  0.44323115  0.38644352    -0.12500
C99         C  0.00624778  0.16967150  0.37048053    -0.10900
C100        C  0.47729621  0.19323169  0.35160761    -0.12500
C101        C  0.11017477  0.09776760  0.32142540    -0.10900
C102        C  0.12230864  0.11509929  0.29969495    -0.12500
C103        C  0.12242964  0.12896302  0.04972387    -0.10900
C104        C  0.11026798  0.14628920  0.07143726    -0.12500
C105        C  0.47713003  0.05090076  0.10161852    -0.10900
C106        C  0.00608956  0.07446730  0.12045583    -0.12500
C107        C  0.49433826  0.32446448  0.11757529    -0.10900
C108        C  0.02329960  0.30090053  0.13641237    -0.12500
C109        C  0.26586494  0.25759941  0.24712639    -0.10900
C110        C  0.23464329  0.23633305  0.24098844    -0.12500
C111        C  0.49871477  0.25813941  0.25599724    -0.10900
C112        C  0.00170918  0.23611562  0.23188066    -0.12500
Fe113      Fe  0.10639806  0.21529804  0.73326926     1.65800
Fe114      Fe  0.13264376  0.14285867  0.68991777     1.73200
Fe115      Fe  0.03527399  0.18974937  0.63699771     1.54400
O116        O  0.00332277  0.21282022  0.67130090    -0.79300
O117        O  0.13550851  0.16290766  0.63933761    -0.77700
O118        O  0.05161167  0.19251487  0.73318961    -0.81900
O119        O  0.06973100  0.26239180  0.69416301    -0.76700
O120        O  0.01572583  0.13647823  0.64339134    -0.78500
O121        O  0.19008293  0.17902902  0.72535598    -0.81200
C122        C  0.05265587  0.26860342  0.65500528     0.99500
C123        C  0.01654364  0.21032786  0.71032661     1.07000
O124        O  0.09261645  0.18342586  0.68601831    -1.10200
O125        O  0.12839774  0.11976220  0.73937952    -0.72600
O126        O  0.14124865  0.17244091  0.77689143    -0.76100
O127        O  0.05377991  0.24360450  0.63048564    -0.76800
C128        C  0.13220442  0.13673096  0.77128024     0.98400
O129        O  0.16277866  0.23546420  0.73322788    -0.74800
O130        O  0.07787190  0.10517160  0.65273517    -0.80000
C131        C  0.10170201  0.16110071  0.60386284     1.01100
C132        C  0.03523871  0.10649703  0.64073836     1.07000
O133        O  0.06146746  0.16770472  0.59788075    -0.75600
C134        C  0.19395050  0.21550170  0.73279236     1.05300
Fe135      Fe  0.10641707  0.02878620  0.98331206     1.65800
Fe136      Fe  0.13271510  0.10117405  0.93993315     1.73200
Fe137      Fe  0.03524872  0.05440620  0.88708753     1.54400
O138        O  0.05362998  0.50052803  0.88051155    -0.79300
O139        O  0.07799369  0.13891218  0.90277384    -0.77700
O140        O  0.06963788  0.48172701  0.94420122    -0.81900
O141        O  0.05170828  0.05164363  0.98331606    -0.76700
O142        O  0.06141270  0.07640344  0.84792870    -0.78500
O143        O  0.12854867  0.12430271  0.48942157    -0.81200
C144        C  0.01659164  0.03388147  0.96047148     0.99500
C145        C  0.05251991  0.47552797  0.90503669     1.07000
O146        O  0.09263715  0.06065942  0.93606473    -1.10200
O147        O  0.19010768  0.06494859  0.97533606    -0.72600
O148        O  0.16273114  0.00854483  0.98319550    -0.76100
O149        O  0.00332487  0.03138794  0.92143814    -0.76800
C150        C  0.19392356  0.02847210  0.98275030     0.98400
O151        O  0.14137472  0.07162107  0.52692386    -0.74800
O152        O  0.13547992  0.08108432  0.88932011    -0.80000
C153        C  0.03536792  0.13764315  0.89081913     1.01100
C154        C  0.10164343  0.08294686  0.85386740     1.07000
O155        O  0.01583314  0.10770717  0.89354924    -0.75600
C156        C  0.13234420  0.10733369  0.52131930     1.05300
Fe157      Fe  0.39403453  0.27878110  0.75473837     1.65800
Fe158      Fe  0.36774335  0.35116908  0.79811646     1.73200
Fe159      Fe  0.46520825  0.30440398  0.85096095     1.54400
O160        O  0.44682679  0.25052522  0.85753923    -0.79300
O161        O  0.42246647  0.38890787  0.83527583    -0.77700
O162        O  0.43081539  0.23172351  0.79384942    -0.81900
O163        O  0.44874176  0.30164110  0.75473050    -0.76700
O164        O  0.43904572  0.32640062  0.89012098    -0.78500
O165        O  0.37190923  0.37429734  0.74862714    -0.81200
C166        C  0.48385856  0.28387998  0.77757314     0.99500
C167        C  0.44793647  0.22552556  0.83301440     1.07000
O168        O  0.40781877  0.31065524  0.80198504    -1.10200
O169        O  0.31034821  0.31494407  0.76271288    -0.72600
O170        O  0.33772102  0.25853849  0.75485873    -0.76100
O171        O  0.49712856  0.28138673  0.81660727    -0.76800
C172        C  0.30652882  0.27846746  0.75529969     0.98400
O173        O  0.35907507  0.32161435  0.71112572    -0.74800
O174        O  0.36497851  0.33107798  0.84872920    -0.80000
C175        C  0.46509195  0.38764036  0.84722975     1.01100
C176        C  0.39881475  0.33294240  0.88418186     1.07000
O177        O  0.48462518  0.35770556  0.84449781    -0.75600
C178        C  0.36810601  0.35732754  0.71672749     1.05300
Fe179      Fe  0.39403847  0.46529290  0.50476231     1.65800
Fe180      Fe  0.36778632  0.39285313  0.54811413     1.73200
Fe181      Fe  0.46515800  0.43974598  0.60103478     1.54400
O182        O  0.49711209  0.46281826  0.56673419    -0.79300
O183        O  0.36492242  0.41290039  0.59869503    -0.77700
O184        O  0.44882564  0.44251209  0.50484453    -0.81900
O185        O  0.43070476  0.01238770  0.54386863    -0.76700
O186        O  0.48470373  0.38647547  0.59464106    -0.78500
O187        O  0.31034979  0.42902426  0.51267730    -0.81200
C188        C  0.44777751  0.01860025  0.58302598     0.99500
C189        C  0.48389381  0.46032582  0.52770916     1.07000
O190        O  0.40781604  0.43342126  0.55201356    -1.10200
O191        O  0.37203261  0.36975678  0.99865312    -0.72600
O192        O  0.35918887  0.42243455  0.96114093    -0.76100
O193        O  0.44665397  0.49360071  0.60754616    -0.76800
C194        C  0.36823357  0.38672529  0.96675460     0.98400
O195        O  0.33765792  0.48545795  0.50480112    -0.74800
O196        O  0.42255632  0.35516644  0.58529623    -0.80400
C197        C  0.39872940  0.41109488  0.63416968     1.01100
C198        C  0.46518966  0.35649331  0.59729317     1.07000
O199        O  0.43896365  0.41770042  0.64015104    -0.75600
C200        C  0.30648583  0.46549696  0.50524059     1.05300
C201        C  0.39028155  0.34776349  0.91662218    -0.10900
C202        C  0.37814034  0.36509452  0.93834697    -0.12500
C203        C  0.37801067  0.37895701  0.68831601    -0.10900
C204        C  0.39016541  0.39628360  0.66659704    -0.12500
C205        C  0.23458264  0.00760111  0.99091831    -0.10900
C206        C  0.26579796  0.48633095  0.99705046    -0.12500
C207        C  0.00173146  0.00813985  0.98204442    -0.10900
C208        C  0.49873200  0.48611447  0.50615770    -0.12500
C209        C  0.49421302  0.41966900  0.86756976    -0.10900
C210        C  0.02316331  0.44323115  0.88644351    -0.12500
C211        C  0.00624776  0.16967147  0.87048048    -0.10900
C212        C  0.47729620  0.19323171  0.85160762    -0.12500
C213        C  0.11017472  0.09776764  0.82142543    -0.10900
C214        C  0.12230847  0.11509929  0.79969487    -0.12500
C215        C  0.12242960  0.12896305  0.54972382    -0.10900
C216        C  0.11026797  0.14628926  0.57143721    -0.12500
C217        C  0.47712993  0.05090077  0.60161839    -0.10900
C218        C  0.00608948  0.07446731  0.62045565    -0.12500
C219        C  0.49433827  0.32446434  0.61757514    -0.10900
C220        C  0.02329959  0.30090043  0.63641230    -0.12500
C221        C  0.26586487  0.25759936  0.74712630    -0.10900
C222        C  0.23464325  0.23633294  0.74098830    -0.12500
C223        C  0.49871464  0.25813941  0.75599721    -0.10900
C224        C  0.00170928  0.23611563  0.73188072    -0.12500
Fe225      Fe  0.10639803  0.71529806  0.23326931     1.65800
Fe226      Fe  0.13264375  0.64285873  0.18991783     1.73200
Fe227      Fe  0.03527389  0.68974938  0.13699756     1.54400
O228        O  0.00332271  0.71282020  0.17130082    -0.79300
O229        O  0.13550842  0.66290773  0.13933762    -0.77700
O230        O  0.05161161  0.69251489  0.23318960    -0.81900
O231        O  0.06973094  0.76239165  0.19416290    -0.76700
O232        O  0.01572585  0.63647816  0.14339117    -0.78500
O233        O  0.19008288  0.67902915  0.22535591    -0.81200
C234        C  0.05265592  0.76860339  0.15500519     0.99500
C235        C  0.01654357  0.71032783  0.21032654     1.07000
O236        O  0.09261635  0.68342585  0.18601830    -1.10200
O237        O  0.12839775  0.61976229  0.23937958    -0.72600
O238        O  0.14124864  0.67244099  0.27689151    -0.76100
O239        O  0.05377980  0.74360450  0.13048545    -0.76800
C240        C  0.13220444  0.63673105  0.27128031     0.98400
O241        O  0.16277869  0.73546428  0.23322803    -0.74800
O242        O  0.07787205  0.60517154  0.15273533    -0.80000
C243        C  0.10170194  0.66110077  0.10386282     1.01100
C244        C  0.03523884  0.60649693  0.14073845     1.07000
O245        O  0.06146737  0.66770479  0.09788064    -0.75600
C246        C  0.19395052  0.71550180  0.23279245     1.05300
Fe247      Fe  0.10641702  0.52878621  0.48331202     1.65800
Fe248      Fe  0.13271510  0.60117407  0.43993320     1.73200
Fe249      Fe  0.03524888  0.55440623  0.38708758     1.54400
O250        O  0.05363004  0.00052799  0.38051168    -0.79300
O251        O  0.07799367  0.63891208  0.40277375    -0.77700
O252        O  0.06963780  0.98172695  0.44420126    -0.81900
O253        O  0.05170823  0.55164350  0.48331610    -0.76700
O254        O  0.06141275  0.57640342  0.34792863    -0.78500
O255        O  0.12854863  0.62430282  0.98942154    -0.81200
C256        C  0.01659155  0.53388145  0.46047143     0.99500
C257        C  0.05251990  0.97552791  0.40503675     1.07000
O258        O  0.09263717  0.56065952  0.43606480    -1.10200
O259        O  0.19010759  0.56494852  0.47533600    -0.72600
O260        O  0.16273104  0.50854475  0.48319538    -0.76100
O261        O  0.00332485  0.53138803  0.42143808    -0.76800
C262        C  0.19392348  0.52847203  0.48275026     0.98400
O263        O  0.14137468  0.57162118  0.02692383    -0.74800
O264        O  0.13547991  0.58108438  0.38932009    -0.80000
C265        C  0.03536789  0.63764306  0.39081901     1.01100
C266        C  0.10164345  0.58294684  0.35386735     1.07000
O267        O  0.01583310  0.60770710  0.39354912    -0.75600
C268        C  0.13234416  0.60733380  0.02131928     1.05300
Fe269      Fe  0.39403445  0.77878116  0.25473822     1.65800
Fe270      Fe  0.36774346  0.85116916  0.29811638     1.73200
Fe271      Fe  0.46520828  0.80440401  0.35096098     1.54400
O272        O  0.44682686  0.75052516  0.35753917    -0.79300
O273        O  0.42246651  0.88890792  0.33527578    -0.77700
O274        O  0.43081531  0.73172347  0.29384929    -0.81900
O275        O  0.44874175  0.80164109  0.25473041    -0.76700
O276        O  0.43904578  0.82640067  0.39012103    -0.78500
O277        O  0.37190917  0.87429742  0.24862697    -0.81200
C278        C  0.48385858  0.78387999  0.27757309     0.99500
C279        C  0.44793644  0.72552549  0.33301430     1.07000
O280        O  0.40781880  0.81065528  0.30198498    -1.10200
O281        O  0.31034838  0.81494412  0.26271291    -0.72600
O282        O  0.33772099  0.75853853  0.25485854    -0.76100
O283        O  0.49712862  0.78138685  0.31660726    -0.76800
C284        C  0.30652889  0.77846753  0.25529963     0.98400
O285        O  0.35907494  0.82161442  0.21112556    -0.74800
O286        O  0.36497859  0.83107808  0.34872918    -0.80000
C287        C  0.46509199  0.88764038  0.34722976     1.01100
C288        C  0.39881482  0.83294246  0.38418189     1.07000
O289        O  0.48462522  0.85770556  0.34449791    -0.75600
C290        C  0.36810592  0.85732760  0.21672733     1.05300
Fe291      Fe  0.39403845  0.96529297  0.00476235     1.65800
Fe292      Fe  0.36778635  0.89285317  0.04811421     1.73200
Fe293      Fe  0.46515818  0.93974603  0.10103486     1.54400
O294        O  0.49711226  0.96281817  0.06673418    -0.79300
O295        O  0.36492244  0.91290030  0.09869510    -0.77700
O296        O  0.44882554  0.94251214  0.00484455    -0.81900
O297        O  0.43070469  0.51238771  0.04386866    -0.76700
O298        O  0.48470370  0.88647550  0.09464099    -0.78500
O299        O  0.31034979  0.92902427  0.01267739    -0.81200
C300        C  0.44777749  0.51860028  0.08302603     0.99500
C301        C  0.48389377  0.96032582  0.02770911     1.07000
O302        O  0.40781618  0.93342128  0.05201363    -1.10200
O303        O  0.37203248  0.86975672  0.49865297    -0.72600
O304        O  0.35918882  0.92243460  0.46114096    -0.76100
O305        O  0.44665403  0.99360071  0.10754621    -0.76800
C306        C  0.36823353  0.88672532  0.46675453     0.98400
O307        O  0.33765783  0.98545795  0.00480102    -0.74800
O308        O  0.42255630  0.85516648  0.08529621    -0.80400
C309        C  0.39872943  0.91109494  0.13416973     1.01100
C310        C  0.46518964  0.85649337  0.09729321     1.07000
O311        O  0.43896370  0.91770053  0.14015111    -0.75600
C312        C  0.30648579  0.96549695  0.00524056     1.05300
C313        C  0.39028162  0.84776354  0.41662219    -0.10900
C314        C  0.37814039  0.86509466  0.43834690    -0.12500
C315        C  0.37801067  0.87895703  0.18831592    -0.10900
C316        C  0.39016542  0.89628368  0.16659704    -0.12500
C317        C  0.23458257  0.50760107  0.49091821    -0.10900
C318        C  0.26579790  0.98633095  0.49705036    -0.12500
C319        C  0.00173125  0.50813985  0.48204430    -0.10900
C320        C  0.49873186  0.98611448  0.00615764    -0.12500
C321        C  0.49421308  0.91966894  0.36756984    -0.10900
C322        C  0.02316334  0.94323108  0.38644354    -0.12500
C323        C  0.00624782  0.66967143  0.37048049    -0.10900
C324        C  0.47729623  0.69323164  0.35160758    -0.12500
C325        C  0.11017476  0.59776764  0.32142541    -0.10900
C326        C  0.12230861  0.61509934  0.29969495    -0.12500
C327        C  0.12242963  0.62896312  0.04972387    -0.10900
C328        C  0.11026798  0.64628930  0.07143726    -0.12500
C329        C  0.47712998  0.55090076  0.10161849    -0.10900
C330        C  0.00608965  0.57446717  0.12045584    -0.12500
C331        C  0.49433828  0.82446443  0.11757528    -0.10900
C332        C  0.02329982  0.80090053  0.13641234    -0.12500
C333        C  0.26586497  0.75759942  0.24712637    -0.10900
C334        C  0.23464333  0.73633303  0.24098844    -0.12500
C335        C  0.49871472  0.75813937  0.25599721    -0.10900
C336        C  0.00170930  0.73611566  0.23188065    -0.12500
Fe337      Fe  0.10639805  0.71529808  0.73326926     1.65800
Fe338      Fe  0.13264375  0.64285870  0.68991778     1.73200
Fe339      Fe  0.03527399  0.68974941  0.63699770     1.54400
O340        O  0.00332276  0.71282025  0.67130090    -0.79300
O341        O  0.13550849  0.66290773  0.63933761    -0.77700
O342        O  0.05161167  0.69251491  0.73318962    -0.81900
O343        O  0.06973094  0.76239174  0.69416299    -0.76700
O344        O  0.01572589  0.63647818  0.64339131    -0.78500
O345        O  0.19008292  0.67902904  0.72535601    -0.81200
C346        C  0.05265583  0.76860342  0.65500527     0.99500
C347        C  0.01654360  0.71032785  0.71032661     1.07000
O348        O  0.09261641  0.68342585  0.68601834    -1.10200
O349        O  0.12839776  0.61976219  0.73937954    -0.72600
O350        O  0.14124864  0.67244096  0.77689140    -0.76100
O351        O  0.05377989  0.74360453  0.63048561    -0.76800
C352        C  0.13220440  0.63673100  0.77128024     0.98400
O353        O  0.16277864  0.73546424  0.73322785    -0.74800
O354        O  0.07787197  0.60517158  0.65273516    -0.80000
C355        C  0.10170199  0.66110070  0.60386285     1.01100
C356        C  0.03523880  0.60649697  0.64073839     1.07000
O357        O  0.06146745  0.66770478  0.59788074    -0.75600
C358        C  0.19395049  0.71550173  0.73279236     1.05300
Fe359      Fe  0.10641708  0.52878624  0.98331206     1.65800
Fe360      Fe  0.13271511  0.60117410  0.93993316     1.73200
Fe361      Fe  0.03524886  0.55440625  0.88708754     1.54400
O362        O  0.05362990  0.00052802  0.88051154    -0.79300
O363        O  0.07799367  0.63891213  0.90277381    -0.77700
O364        O  0.06963785  0.98172699  0.94420121    -0.81900
O365        O  0.05170830  0.55164352  0.98331611    -0.76700
O366        O  0.06141274  0.57640350  0.84792868    -0.78500
O367        O  0.12854865  0.62430275  0.48942158    -0.81200
C368        C  0.01659166  0.53388140  0.96047148     0.99500
C369        C  0.05251989  0.97552794  0.90503668     1.07000
O370        O  0.09263720  0.56065950  0.93606477    -1.10200
O371        O  0.19010764  0.56494856  0.97533605    -0.72600
O372        O  0.16273115  0.50854478  0.98319551    -0.76100
O373        O  0.00332490  0.53138798  0.92143812    -0.76800
C374        C  0.19392354  0.52847206  0.98275031     0.98400
O375        O  0.14137471  0.57162111  0.52692385    -0.74800
O376        O  0.13547993  0.58108438  0.88932011    -0.80000
C377        C  0.03536790  0.63764310  0.89081911     1.01100
C378        C  0.10164345  0.58294686  0.85386739     1.07000
O379        O  0.01583315  0.60770713  0.89354925    -0.75600
C380        C  0.13234417  0.60733374  0.52131929     1.05300
Fe381      Fe  0.39403453  0.77878115  0.75473838     1.65800
Fe382      Fe  0.36774336  0.85116918  0.79811645     1.73200
Fe383      Fe  0.46520824  0.80440401  0.85096095     1.54400
O384        O  0.44682679  0.75052516  0.85753925    -0.79300
O385        O  0.42246646  0.88890793  0.83527582    -0.77700
O386        O  0.43081540  0.73172353  0.79384943    -0.81900
O387        O  0.44874173  0.80164103  0.75473044    -0.76700
O388        O  0.43904577  0.82640073  0.89012098    -0.78500
O389        O  0.37190921  0.87429740  0.74862712    -0.81200
C390        C  0.48385855  0.78387997  0.77757314     0.99500
C391        C  0.44793646  0.72552552  0.83301440     1.07000
O392        O  0.40781878  0.81065533  0.80198504    -1.10200
O393        O  0.31034827  0.81494414  0.76271285    -0.72600
O394        O  0.33772106  0.75853854  0.75485874    -0.76100
O395        O  0.49712856  0.78138681  0.81660728    -0.76800
C396        C  0.30652886  0.77846751  0.75529970     0.98400
O397        O  0.35907507  0.82161438  0.71112573    -0.74800
O398        O  0.36497855  0.83107807  0.84872922    -0.80000
C399        C  0.46509194  0.88764035  0.84722975     1.01100
C400        C  0.39881481  0.83294250  0.88418188     1.07000
O401        O  0.48462513  0.85770553  0.84449780    -0.75600
C402        C  0.36810604  0.85732755  0.71672749     1.05300
Fe403      Fe  0.39403845  0.96529297  0.50476230     1.65800
Fe404      Fe  0.36778631  0.89285317  0.54811412     1.73200
Fe405      Fe  0.46515798  0.93974602  0.60103479     1.54400
O406        O  0.49711212  0.96281821  0.56673420    -0.79300
O407        O  0.36492240  0.91290032  0.59869503    -0.77700
O408        O  0.44882559  0.94251219  0.50484449    -0.81900
O409        O  0.43070472  0.51238772  0.54386861    -0.76700
O410        O  0.48470372  0.88647551  0.59464106    -0.78500
O411        O  0.31034978  0.92902427  0.51267727    -0.81200
C412        C  0.44777748  0.51860027  0.58302597     0.99500
C413        C  0.48389379  0.96032587  0.52770915     1.07000
O414        O  0.40781603  0.93342134  0.55201356    -1.10200
O415        O  0.37203256  0.86975678  0.99865309    -0.72600
O416        O  0.35918888  0.92243460  0.96114098    -0.76100
O417        O  0.44665395  0.99360073  0.60754618    -0.76800
C418        C  0.36823357  0.88672533  0.96675460     0.98400
O419        O  0.33765791  0.98545799  0.50480115    -0.74800
O420        O  0.42255631  0.85516649  0.58529623    -0.80400
C421        C  0.39872939  0.91109484  0.63416967     1.01100
C422        C  0.46518965  0.85649335  0.59729316     1.07000
O423        O  0.43896364  0.91770036  0.64015101    -0.75600
C424        C  0.30648581  0.96549698  0.50524060     1.05300
C425        C  0.39028159  0.84776359  0.91662218    -0.10900
C426        C  0.37814034  0.86509461  0.93834694    -0.12500
C427        C  0.37801081  0.87895697  0.68831606    -0.10900
C428        C  0.39016547  0.89628353  0.66659704    -0.12500
C429        C  0.23458265  0.50760111  0.99091832    -0.10900
C430        C  0.26579795  0.98633096  0.99705046    -0.12500
C431        C  0.00173134  0.50813984  0.98204437    -0.10900
C432        C  0.49873198  0.98611457  0.50615774    -0.12500
C433        C  0.49421309  0.91966891  0.86756980    -0.10900
C434        C  0.02316337  0.94323107  0.88644353    -0.12500
C435        C  0.00624775  0.66967140  0.87048045    -0.10900
C436        C  0.47729628  0.69323167  0.85160759    -0.12500
C437        C  0.11017473  0.59776769  0.82142544    -0.10900
C438        C  0.12230845  0.61509938  0.79969489    -0.12500
C439        C  0.12242959  0.62896310  0.54972381    -0.10900
C440        C  0.11026796  0.64628930  0.57143721    -0.12500
C441        C  0.47712994  0.55090076  0.60161839    -0.10900
C442        C  0.00608956  0.57446723  0.62045570    -0.12500
C443        C  0.49433828  0.82446437  0.61757516    -0.10900
C444        C  0.02329960  0.80090047  0.63641234    -0.12500
C445        C  0.26586491  0.75759937  0.74712632    -0.10900
C446        C  0.23464326  0.73633297  0.74098830    -0.12500
C447        C  0.49871464  0.75813935  0.75599725    -0.10900
C448        C  0.00170926  0.73611561  0.73188072    -0.12500
Fe449      Fe  0.60639808  0.21529805  0.23326931     1.65800
Fe450      Fe  0.63264379  0.14285866  0.18991783     1.73200
Fe451      Fe  0.53527394  0.18974952  0.13699756     1.54400
O452        O  0.50332280  0.21282038  0.17130083    -0.79300
O453        O  0.63550848  0.16290762  0.13933762    -0.77700
O454        O  0.55161162  0.19251488  0.23318956    -0.81900
O455        O  0.56973098  0.26239175  0.19416293    -0.76700
O456        O  0.51572579  0.13647830  0.14339118    -0.78500
O457        O  0.69008292  0.17902912  0.22535591    -0.81200
C458        C  0.55265585  0.26860349  0.15500521     0.99500
C459        C  0.51654360  0.21032789  0.21032653     1.07000
O460        O  0.59261644  0.18342590  0.18601827    -1.10200
O461        O  0.62839782  0.11976224  0.23937961    -0.72600
O462        O  0.64124869  0.17244096  0.27689150    -0.76100
O463        O  0.55377986  0.24360466  0.13048546    -0.76800
C464        C  0.63220445  0.13673102  0.27128031     0.98400
O465        O  0.66277872  0.23546427  0.23322802    -0.74800
O466        O  0.57787196  0.10517157  0.15273532    -0.80000
C467        C  0.60170200  0.16110067  0.10386282     1.01100
C468        C  0.53523875  0.10649704  0.14073844     1.07000
O469        O  0.56146743  0.16770475  0.09788066    -0.75600
C470        C  0.69395054  0.21550179  0.23279244     1.05300
Fe471      Fe  0.60641706  0.02878619  0.48331201     1.65800
Fe472      Fe  0.63271497  0.10117404  0.43993318     1.73200
Fe473      Fe  0.53524875  0.05440619  0.38708758     1.54400
O474        O  0.55363002  0.50052804  0.38051168    -0.79300
O475        O  0.57799358  0.13891210  0.40277376    -0.77700
O476        O  0.56963787  0.48172694  0.44420127    -0.81900
O477        O  0.55170828  0.05164357  0.48331605    -0.76700
O478        O  0.56141267  0.07640340  0.34792866    -0.78500
O479        O  0.62854863  0.12430274  0.98942156    -0.81200
C480        C  0.51659161  0.03388147  0.46047145     0.99500
C481        C  0.55251994  0.47552794  0.40503676     1.07000
O482        O  0.59263706  0.06065950  0.43606479    -1.10200
O483        O  0.69010751  0.06494857  0.47533603    -0.72600
O484        O  0.66273105  0.00854476  0.48319537    -0.76100
O485        O  0.50332487  0.03138793  0.42143811    -0.76800
C486        C  0.69392347  0.02847208  0.48275025     0.98400
O487        O  0.64137468  0.07162108  0.02692382    -0.74800
O488        O  0.63547984  0.08108433  0.38932010    -0.80000
C489        C  0.53536781  0.13764311  0.39081904     1.01100
C490        C  0.60164338  0.08294683  0.35386736     1.07000
O491        O  0.51583297  0.10770714  0.39354910    -0.75600
C492        C  0.63234422  0.10733371  0.02131930     1.05300
Fe493      Fe  0.89403445  0.27878109  0.25473821     1.65800
Fe494      Fe  0.86774333  0.35116906  0.29811638     1.73200
Fe495      Fe  0.96520827  0.30440394  0.35096099     1.54400
O496        O  0.94682665  0.25052519  0.35753911    -0.79300
O497        O  0.92246647  0.38890782  0.33527582    -0.77700
O498        O  0.93081530  0.23172344  0.29384930    -0.81900
O499        O  0.94874167  0.30164103  0.25473042    -0.76700
O500        O  0.93904576  0.32640057  0.39012104    -0.78500
O501        O  0.87190915  0.37429731  0.24862701    -0.81200
C502        C  0.98385848  0.28387996  0.27757309     0.99500
C503        C  0.94793634  0.22552550  0.33301430     1.07000
O504        O  0.90781877  0.31065523  0.30198496    -1.10200
O505        O  0.81034820  0.31494409  0.26271293    -0.72600
O506        O  0.83772095  0.25853857  0.25485853    -0.76100
O507        O  0.99712851  0.28138674  0.31660724    -0.76800
C508        C  0.80652880  0.27846751  0.25529964     0.98400
O509        O  0.85907502  0.32161435  0.21112553    -0.74800
O510        O  0.86497855  0.33107796  0.34872920    -0.80000
C511        C  0.96509196  0.38764033  0.34722975     1.01100
C512        C  0.89881479  0.33294237  0.38418189     1.07000
O513        O  0.98462525  0.35770553  0.34449792    -0.75600
C514        C  0.86810592  0.35732755  0.21672734     1.05300
Fe515      Fe  0.89403847  0.46529287  0.00476234     1.65800
Fe516      Fe  0.86778635  0.39285315  0.04811421     1.73200
Fe517      Fe  0.96515804  0.43974609  0.10103484     1.54400
O518        O  0.99711203  0.46281831  0.06673414    -0.79300
O519        O  0.86492240  0.41290037  0.09869511    -0.77700
O520        O  0.94882555  0.44251199  0.00484457    -0.81900
O521        O  0.93070475  0.01238780  0.04386867    -0.76700
O522        O  0.98470373  0.38647557  0.09464098    -0.78500
O523        O  0.81034979  0.42902425  0.01267741    -0.81200
C524        C  0.94777758  0.01860029  0.08302604     0.99500
C525        C  0.98389368  0.46032581  0.02770911     1.07000
O526        O  0.90781608  0.43342128  0.05201363    -1.10200
O527        O  0.87203258  0.36975673  0.49865302    -0.72600
O528        O  0.85918882  0.42243454  0.46114090    -0.76100
O529        O  0.94665400  0.49360076  0.10754623    -0.76800
C530        C  0.86823353  0.38672528  0.46675452     0.98400
O531        O  0.83765784  0.48545790  0.00480099    -0.74800
O532        O  0.92255636  0.35516653  0.08529624    -0.80400
C533        C  0.89872940  0.41109489  0.13416973     1.01100
C534        C  0.96518968  0.35649343  0.09729319     1.07000
O535        O  0.93896367  0.41770046  0.14015109    -0.75600
C536        C  0.80648580  0.46549693  0.00524056     1.05300
C537        C  0.89028157  0.34776345  0.41662218    -0.10900
C538        C  0.87814027  0.36509454  0.43834687    -0.12500
C539        C  0.87801055  0.37895707  0.18831590    -0.10900
C540        C  0.89016540  0.39628362  0.16659703    -0.12500
C541        C  0.73458256  0.00760112  0.49091818    -0.10900
C542        C  0.76579790  0.48633093  0.49705035    -0.12500
C543        C  0.50173136  0.00813993  0.48204438    -0.10900
C544        C  0.99873174  0.48611446  0.00615760    -0.12500
C545        C  0.99421301  0.41966897  0.36756977    -0.10900
C546        C  0.52316331  0.44323115  0.38644352    -0.12500
C547        C  0.50624780  0.16967149  0.37048052    -0.10900
C548        C  0.97729619  0.19323172  0.35160763    -0.12500
C549        C  0.61017471  0.09776759  0.32142539    -0.10900
C550        C  0.62230852  0.11509932  0.29969491    -0.12500
C551        C  0.62242970  0.12896302  0.04972388    -0.10900
C552        C  0.61026803  0.14628920  0.07143727    -0.12500
C553        C  0.97713006  0.05090076  0.10161852    -0.10900
C554        C  0.50608957  0.07446728  0.12045581    -0.12500
C555        C  0.99433829  0.32446449  0.11757528    -0.10900
C556        C  0.52329961  0.30090054  0.13641236    -0.12500
C557        C  0.76586493  0.25759939  0.24712639    -0.10900
C558        C  0.73464330  0.23633302  0.24098843    -0.12500
C559        C  0.99871461  0.25813939  0.25599719    -0.10900
C560        C  0.50170927  0.23611563  0.23188067    -0.12500
Fe561      Fe  0.60639805  0.21529804  0.73326926     1.65800
Fe562      Fe  0.63264364  0.14285867  0.68991777     1.73200
Fe563      Fe  0.53527400  0.18974938  0.63699771     1.54400
O564        O  0.50332268  0.21282018  0.67130089    -0.79300
O565        O  0.63550851  0.16290763  0.63933764    -0.77700
O566        O  0.55161169  0.19251487  0.73318958    -0.81900
O567        O  0.56973087  0.26239176  0.69416301    -0.76700
O568        O  0.51572580  0.13647827  0.64339132    -0.78500
O569        O  0.69008288  0.17902902  0.72535595    -0.81200
C570        C  0.55265587  0.26860342  0.65500529     0.99500
C571        C  0.51654364  0.21032785  0.71032662     1.07000
O572        O  0.59261642  0.18342589  0.68601830    -1.10200
O573        O  0.62839772  0.11976220  0.73937952    -0.72600
O574        O  0.64124871  0.17244092  0.77689143    -0.76100
O575        O  0.55377998  0.24360451  0.63048568    -0.76800
C576        C  0.63220447  0.13673096  0.77128026     0.98400
O577        O  0.66277864  0.23546420  0.73322788    -0.74800
O578        O  0.57787180  0.10517157  0.65273519    -0.80000
C579        C  0.60170204  0.16110072  0.60386285     1.01100
C580        C  0.53523862  0.10649705  0.64073836     1.07000
O581        O  0.56146750  0.16770473  0.59788076    -0.75600
C582        C  0.69395048  0.21550171  0.73279236     1.05300
Fe583      Fe  0.60641696  0.02878619  0.98331207     1.65800
Fe584      Fe  0.63271493  0.10117403  0.93993315     1.73200
Fe585      Fe  0.53524869  0.05440620  0.88708752     1.54400
O586        O  0.55362996  0.50052805  0.88051155    -0.79300
O587        O  0.57799360  0.13891217  0.90277382    -0.77700
O588        O  0.56963792  0.48172700  0.94420122    -0.81900
O589        O  0.55170820  0.05164361  0.98331604    -0.76700
O590        O  0.56141267  0.07640344  0.84792865    -0.78500
O591        O  0.62854864  0.12430273  0.48942158    -0.81200
C592        C  0.51659156  0.03388146  0.96047147     0.99500
C593        C  0.55251994  0.47552797  0.90503669     1.07000
O594        O  0.59263700  0.06065944  0.93606477    -1.10200
O595        O  0.69010754  0.06494860  0.97533607    -0.72600
O596        O  0.66273109  0.00854480  0.98319551    -0.76100
O597        O  0.50332476  0.03138796  0.92143811    -0.76800
C598        C  0.69392349  0.02847210  0.98275029     0.98400
O599        O  0.64137477  0.07162108  0.52692386    -0.74800
O600        O  0.63547982  0.08108432  0.88932015    -0.80000
C601        C  0.53536784  0.13764314  0.89081914     1.01100
C602        C  0.60164340  0.08294686  0.85386741     1.07000
O603        O  0.51583307  0.10770716  0.89354924    -0.75600
C604        C  0.63234419  0.10733369  0.52131931     1.05300
Fe605      Fe  0.89403456  0.27878109  0.75473837     1.65800
Fe606      Fe  0.86774338  0.35116908  0.79811646     1.73200
Fe607      Fe  0.96520827  0.30440397  0.85096095     1.54400
O608        O  0.94682680  0.25052523  0.85753924    -0.79300
O609        O  0.92246645  0.38890790  0.83527582    -0.77700
O610        O  0.93081540  0.23172350  0.79384944    -0.81900
O611        O  0.94874173  0.30164109  0.75473052    -0.76700
O612        O  0.93904569  0.32640061  0.89012093    -0.78500
O613        O  0.87190930  0.37429733  0.74862715    -0.81200
C614        C  0.98385854  0.28387999  0.77757312     0.99500
C615        C  0.94793638  0.22552552  0.83301440     1.07000
O616        O  0.90781881  0.31065523  0.80198504    -1.10200
O617        O  0.81034826  0.31494407  0.76271288    -0.72600
O618        O  0.83772107  0.25853848  0.75485873    -0.76100
O619        O  0.99712860  0.28138675  0.81660727    -0.76800
C620        C  0.80652886  0.27846746  0.75529969     0.98400
O621        O  0.85907512  0.32161435  0.71112572    -0.74800
O622        O  0.86497846  0.33107799  0.84872920    -0.80000
C623        C  0.96509192  0.38764037  0.84722975     1.01100
C624        C  0.89881474  0.33294239  0.88418185     1.07000
O625        O  0.98462514  0.35770555  0.84449782    -0.75600
C626        C  0.86810607  0.35732753  0.71672749     1.05300
Fe627      Fe  0.89403836  0.46529290  0.50476231     1.65800
Fe628      Fe  0.86778633  0.39285314  0.54811413     1.73200
Fe629      Fe  0.96515802  0.43974599  0.60103479     1.54400
O630        O  0.99711208  0.46281824  0.56673419    -0.79300
O631        O  0.86492237  0.41290038  0.59869504    -0.77700
O632        O  0.94882553  0.44251210  0.50484454    -0.81900
O633        O  0.93070453  0.01238773  0.54386862    -0.76700
O634        O  0.98470369  0.38647546  0.59464107    -0.78500
O635        O  0.81034979  0.42902425  0.51267730    -0.81200
C636        C  0.94777742  0.01860028  0.58302599     0.99500
C637        C  0.98389371  0.46032584  0.52770914     1.07000
O638        O  0.90781605  0.43342126  0.55201358    -1.10200
O639        O  0.87203264  0.36975680  0.99865308    -0.72600
O640        O  0.85918890  0.42243456  0.96114087    -0.76100
O641        O  0.94665399  0.49360071  0.60754617    -0.76800
C642        C  0.86823356  0.38672529  0.96675453     0.98400
O643        O  0.83765786  0.48545796  0.50480114    -0.74800
O644        O  0.92255627  0.35516643  0.58529621    -0.80400
C645        C  0.89872938  0.41109489  0.63416967     1.01100
C646        C  0.96518960  0.35649330  0.59729318     1.07000
O647        O  0.93896362  0.41770043  0.64015100    -0.75600
C648        C  0.80648580  0.46549696  0.50524060     1.05300
C649        C  0.89028161  0.34776348  0.91662219    -0.10900
C650        C  0.87814036  0.36509453  0.93834693    -0.12500
C651        C  0.87801073  0.37895701  0.68831602    -0.10900
C652        C  0.89016546  0.39628360  0.66659706    -0.12500
C653        C  0.73458265  0.00760114  0.99091830    -0.10900
C654        C  0.76579795  0.48633096  0.99705045    -0.12500
C655        C  0.50173133  0.00813991  0.98204440    -0.10900
C656        C  0.99873183  0.48611451  0.50615767    -0.12500
C657        C  0.99421303  0.41966898  0.86756974    -0.10900
C658        C  0.52316333  0.44323116  0.88644351    -0.12500
C659        C  0.50624773  0.16967146  0.87048051    -0.10900
C660        C  0.97729609  0.19323165  0.85160764    -0.12500
C661        C  0.61017479  0.09776763  0.82142546    -0.10900
C662        C  0.62230854  0.11509929  0.79969489    -0.12500
C663        C  0.62242949  0.12896301  0.54972378    -0.10900
C664        C  0.61026797  0.14628926  0.57143721    -0.12500
C665        C  0.97712996  0.05090076  0.60161837    -0.10900
C666        C  0.50608937  0.07446735  0.62045568    -0.12500
C667        C  0.99433818  0.32446432  0.61757517    -0.10900
C668        C  0.52329966  0.30090045  0.63641228    -0.12500
C669        C  0.76586490  0.25759935  0.74712630    -0.10900
C670        C  0.73464325  0.23633296  0.74098829    -0.12500
C671        C  0.99871462  0.25813944  0.75599717    -0.10900
C672        C  0.50170932  0.23611562  0.73188075    -0.12500
Fe673      Fe  0.60639808  0.71529806  0.23326931     1.65800
Fe674      Fe  0.63264380  0.64285872  0.18991783     1.73200
Fe675      Fe  0.53527393  0.68974938  0.13699756     1.54400
O676        O  0.50332274  0.71282019  0.17130081    -0.79300
O677        O  0.63550847  0.66290773  0.13933762    -0.77700
O678        O  0.55161165  0.69251492  0.23318961    -0.81900
O679        O  0.56973095  0.76239166  0.19416291    -0.76700
O680        O  0.51572585  0.63647817  0.14339117    -0.78500
O681        O  0.69008291  0.67902913  0.22535590    -0.81200
C682        C  0.55265581  0.76860337  0.15500519     0.99500
C683        C  0.51654358  0.71032782  0.21032653     1.07000
O684        O  0.59261640  0.68342585  0.18601830    -1.10200
O685        O  0.62839780  0.61976228  0.23937960    -0.72600
O686        O  0.64124870  0.67244099  0.27689152    -0.76100
O687        O  0.55377980  0.74360452  0.13048546    -0.76800
C688        C  0.63220443  0.63673105  0.27128030     0.98400
O689        O  0.66277872  0.73546427  0.23322802    -0.74800
O690        O  0.57787204  0.60517154  0.15273532    -0.80000
C691        C  0.60170199  0.66110077  0.10386282     1.01100
C692        C  0.53523884  0.60649693  0.14073846     1.07000
O693        O  0.56146742  0.66770479  0.09788065    -0.75600
C694        C  0.69395054  0.71550178  0.23279245     1.05300
Fe695      Fe  0.60641707  0.52878621  0.48331201     1.65800
Fe696      Fe  0.63271513  0.60117407  0.43993319     1.73200
Fe697      Fe  0.53524877  0.55440624  0.38708758     1.54400
O698        O  0.55363003  0.00052801  0.38051168    -0.79300
O699        O  0.57799366  0.63891206  0.40277375    -0.77700
O700        O  0.56963785  0.98172694  0.44420126    -0.81900
O701        O  0.55170829  0.55164351  0.48331610    -0.76700
O702        O  0.56141268  0.57640344  0.34792866    -0.78500
O703        O  0.62854861  0.62430283  0.98942155    -0.81200
C704        C  0.51659159  0.53388145  0.46047144     0.99500
C705        C  0.55251995  0.97552791  0.40503675     1.07000
O706        O  0.59263715  0.56065951  0.43606477    -1.10200
O707        O  0.69010764  0.56494852  0.47533599    -0.72600
O708        O  0.66273109  0.50854475  0.48319538    -0.76100
O709        O  0.50332484  0.53138802  0.42143810    -0.76800
C710        C  0.69392353  0.52847204  0.48275026     0.98400
O711        O  0.64137472  0.57162118  0.02692383    -0.74800
O712        O  0.63547989  0.58108436  0.38932007    -0.80000
C713        C  0.53536788  0.63764306  0.39081903     1.01100
C714        C  0.60164339  0.58294682  0.35386735     1.07000
O715        O  0.51583305  0.60770711  0.39354914    -0.75600
C716        C  0.63234421  0.60733380  0.02131929     1.05300
Fe717      Fe  0.89403447  0.77878117  0.25473822     1.65800
Fe718      Fe  0.86774331  0.85116916  0.29811638     1.73200
Fe719      Fe  0.96520825  0.80440400  0.35096099     1.54400
O720        O  0.94682665  0.75052515  0.35753913    -0.79300
O721        O  0.92246645  0.88890790  0.33527581    -0.77700
O722        O  0.93081533  0.73172348  0.29384931    -0.81900
O723        O  0.94874177  0.80164112  0.25473039    -0.76700
O724        O  0.93904575  0.82640066  0.39012104    -0.78500
O725        O  0.87190914  0.87429741  0.24862699    -0.81200
C726        C  0.98385854  0.78387999  0.27757309     0.99500
C727        C  0.94793633  0.72552548  0.33301430     1.07000
O728        O  0.90781876  0.81065532  0.30198497    -1.10200
O729        O  0.81034821  0.81494412  0.26271292    -0.72600
O730        O  0.83772093  0.75853858  0.25485854    -0.76100
O731        O  0.99712851  0.78138681  0.31660724    -0.76800
C732        C  0.80652879  0.77846754  0.25529963     0.98400
O733        O  0.85907499  0.82161442  0.21112556    -0.74800
O734        O  0.86497853  0.83107807  0.34872919    -0.80000
C735        C  0.96509194  0.88764038  0.34722974     1.01100
C736        C  0.89881478  0.83294247  0.38418189     1.07000
O737        O  0.98462520  0.85770557  0.34449789    -0.75600
C738        C  0.86810591  0.85732760  0.21672733     1.05300
Fe739      Fe  0.89403849  0.96529297  0.00476235     1.65800
Fe740      Fe  0.86778638  0.89285316  0.04811420     1.73200
Fe741      Fe  0.96515803  0.93974603  0.10103484     1.54400
O742        O  0.99711211  0.96281820  0.06673417    -0.79300
O743        O  0.86492248  0.91290028  0.09869510    -0.77700
O744        O  0.94882557  0.94251212  0.00484452    -0.81900
O745        O  0.93070474  0.51238771  0.04386867    -0.76700
O746        O  0.98470369  0.88647552  0.09464099    -0.78500
O747        O  0.81034983  0.92902427  0.01267739    -0.81200
C748        C  0.94777753  0.51860028  0.08302603     0.99500
C749        C  0.98389376  0.96032582  0.02770912     1.07000
O750        O  0.90781607  0.93342133  0.05201363    -1.10200
O751        O  0.87203254  0.86975673  0.49865299    -0.72600
O752        O  0.85918882  0.92243459  0.46114094    -0.76100
O753        O  0.94665402  0.99360073  0.10754621    -0.76800
C754        C  0.86823352  0.88672532  0.46675453     0.98400
O755        O  0.83765788  0.98545795  0.00480100    -0.74800
O756        O  0.92255635  0.85516647  0.08529622    -0.80400
C757        C  0.89872944  0.91109492  0.13416975     1.01100
C758        C  0.96518969  0.85649337  0.09729322     1.07000
O759        O  0.93896371  0.91770051  0.14015115    -0.75600
C760        C  0.80648583  0.96549696  0.00524056     1.05300
C761        C  0.89028156  0.84776355  0.41662217    -0.10900
C762        C  0.87814026  0.86509463  0.43834686    -0.12500
C763        C  0.87801056  0.87895706  0.18831588    -0.10900
C764        C  0.89016540  0.89628367  0.16659703    -0.12500
C765        C  0.73458260  0.50760108  0.49091820    -0.10900
C766        C  0.76579788  0.98633096  0.49705035    -0.12500
C767        C  0.50173135  0.50813983  0.48204433    -0.10900
C768        C  0.99873195  0.98611446  0.00615768    -0.12500
C769        C  0.99421305  0.91966893  0.36756982    -0.10900
C770        C  0.52316338  0.94323109  0.38644355    -0.12500
C771        C  0.50624781  0.66967142  0.37048050    -0.10900
C772        C  0.97729622  0.69323167  0.35160761    -0.12500
C773        C  0.61017468  0.59776763  0.32142539    -0.10900
C774        C  0.62230849  0.61509937  0.29969491    -0.12500
C775        C  0.62242969  0.62896312  0.04972388    -0.10900
C776        C  0.61026803  0.64628930  0.07143727    -0.12500
C777        C  0.97713001  0.55090076  0.10161849    -0.10900
C778        C  0.50608963  0.57446717  0.12045584    -0.12500
C779        C  0.99433838  0.82446443  0.11757528    -0.10900
C780        C  0.52329964  0.80090048  0.13641235    -0.12500
C781        C  0.76586490  0.75759942  0.24712639    -0.10900
C782        C  0.73464332  0.73633300  0.24098844    -0.12500
C783        C  0.99871465  0.75813934  0.25599723    -0.10900
C784        C  0.50170923  0.73611561  0.23188062    -0.12500
Fe785      Fe  0.60639807  0.71529809  0.73326926     1.65800
Fe786      Fe  0.63264364  0.64285870  0.68991777     1.73200
Fe787      Fe  0.53527399  0.68974941  0.63699770     1.54400
O788        O  0.50332267  0.71282022  0.67130089    -0.79300
O789        O  0.63550849  0.66290770  0.63933764    -0.77700
O790        O  0.55161170  0.69251492  0.73318960    -0.81900
O791        O  0.56973082  0.76239171  0.69416299    -0.76700
O792        O  0.51572576  0.63647819  0.64339129    -0.78500
O793        O  0.69008290  0.67902902  0.72535599    -0.81200
C794        C  0.55265583  0.76860341  0.65500528     0.99500
C795        C  0.51654360  0.71032785  0.71032661     1.07000
O796        O  0.59261638  0.68342588  0.68601834    -1.10200
O797        O  0.62839774  0.61976219  0.73937955    -0.72600
O798        O  0.64124870  0.67244096  0.77689139    -0.76100
O799        O  0.55377997  0.74360454  0.63048565    -0.76800
C800        C  0.63220445  0.63673100  0.77128026     0.98400
O801        O  0.66277868  0.73546425  0.73322784    -0.74800
O802        O  0.57787185  0.60517161  0.65273519    -0.80000
C803        C  0.60170202  0.66110071  0.60386287     1.01100
C804        C  0.53523868  0.60649699  0.64073838     1.07000
O805        O  0.56146749  0.66770478  0.59788075    -0.75600
C806        C  0.69395052  0.71550171  0.73279235     1.05300
Fe807      Fe  0.60641712  0.52878623  0.98331206     1.65800
Fe808      Fe  0.63271496  0.60117409  0.93993316     1.73200
Fe809      Fe  0.53524870  0.55440626  0.88708753     1.54400
O810        O  0.55362996  0.00052802  0.88051155    -0.79300
O811        O  0.57799361  0.63891208  0.90277380    -0.77700
O812        O  0.56963782  0.98172699  0.94420120    -0.81900
O813        O  0.55170831  0.55164349  0.98331608    -0.76700
O814        O  0.56141266  0.57640349  0.84792865    -0.78500
O815        O  0.62854871  0.62430276  0.48942159    -0.81200
C816        C  0.51659161  0.53388139  0.96047149     0.99500
C817        C  0.55251993  0.97552793  0.90503668     1.07000
O818        O  0.59263710  0.56065948  0.93606474    -1.10200
O819        O  0.69010751  0.56494857  0.97533606    -0.72600
O820        O  0.66273117  0.50854474  0.98319551    -0.76100
O821        O  0.50332474  0.53138800  0.92143811    -0.76800
C822        C  0.69392351  0.52847207  0.98275030     0.98400
O823        O  0.64137476  0.57162111  0.52692385    -0.74800
O824        O  0.63547982  0.58108438  0.88932014    -0.80000
C825        C  0.53536785  0.63764309  0.89081911     1.01100
C826        C  0.60164340  0.58294685  0.85386739     1.07000
O827        O  0.51583304  0.60770716  0.89354927    -0.75600
C828        C  0.63234417  0.60733373  0.52131928     1.05300
Fe829      Fe  0.89403455  0.77878115  0.75473838     1.65800
Fe830      Fe  0.86774336  0.85116917  0.79811645     1.73200
Fe831      Fe  0.96520825  0.80440401  0.85096095     1.54400
O832        O  0.94682679  0.75052518  0.85753926    -0.79300
O833        O  0.92246644  0.88890796  0.83527581    -0.77700
O834        O  0.93081541  0.73172353  0.79384944    -0.81900
O835        O  0.94874169  0.80164102  0.75473047    -0.76700
O836        O  0.93904567  0.82640070  0.89012093    -0.78500
O837        O  0.87190926  0.87429738  0.74862714    -0.81200
C838        C  0.98385854  0.78387997  0.77757313     0.99500
C839        C  0.94793636  0.72552550  0.83301440     1.07000
O840        O  0.90781880  0.81065533  0.80198504    -1.10200
O841        O  0.81034822  0.81494414  0.76271287    -0.72600
O842        O  0.83772108  0.75853858  0.75485874    -0.76100
O843        O  0.99712860  0.78138683  0.81660729    -0.76800
C844        C  0.80652886  0.77846752  0.75529970     0.98400
O845        O  0.85907512  0.82161437  0.71112573    -0.74800
O846        O  0.86497845  0.83107810  0.84872921    -0.80000
C847        C  0.96509192  0.88764035  0.84722974     1.01100
C848        C  0.89881472  0.83294249  0.88418185     1.07000
O849        O  0.98462508  0.85770552  0.84449780    -0.75600
C850        C  0.86810604  0.85732756  0.71672749     1.05300
Fe851      Fe  0.89403831  0.96529297  0.50476231     1.65800
Fe852      Fe  0.86778633  0.89285317  0.54811412     1.73200
Fe853      Fe  0.96515800  0.93974602  0.60103480     1.54400
O854        O  0.99711210  0.96281820  0.56673420    -0.79300
O855        O  0.86492235  0.91290030  0.59869505    -0.77700
O856        O  0.94882548  0.94251220  0.50484450    -0.81900
O857        O  0.93070466  0.51238772  0.54386860    -0.76700
O858        O  0.98470367  0.88647550  0.59464107    -0.78500
O859        O  0.81034977  0.92902426  0.51267727    -0.81200
C860        C  0.94777743  0.51860029  0.58302596     0.99500
C861        C  0.98389368  0.96032590  0.52770914     1.07000
O862        O  0.90781603  0.93342134  0.55201358    -1.10200
O863        O  0.87203262  0.86975678  0.99865309    -0.72600
O864        O  0.85918892  0.92243460  0.96114098    -0.76100
O865        O  0.94665399  0.99360073  0.60754622    -0.76800
C866        C  0.86823362  0.88672533  0.96675461     0.98400
O867        O  0.83765784  0.98545799  0.50480115    -0.74800
O868        O  0.92255626  0.85516647  0.58529621    -0.80400
C869        C  0.89872936  0.91109483  0.63416967     1.01100
C870        C  0.96518959  0.85649334  0.59729316     1.07000
O871        O  0.93896361  0.91770036  0.64015098    -0.75600
C872        C  0.80648578  0.96549698  0.50524060     1.05300
C873        C  0.89028159  0.84776359  0.91662219    -0.10900
C874        C  0.87814039  0.86509462  0.93834697    -0.12500
C875        C  0.87801070  0.87895700  0.68831601    -0.10900
C876        C  0.89016546  0.89628353  0.66659705    -0.12500
C877        C  0.73458267  0.50760116  0.99091831    -0.10900
C878        C  0.76579798  0.98633098  0.99705046    -0.12500
C879        C  0.50173128  0.50813988  0.98204440    -0.10900
C880        C  0.99873182  0.98611462  0.50615771    -0.12500
C881        C  0.99421310  0.91966890  0.86756978    -0.10900
C882        C  0.52316339  0.94323107  0.88644352    -0.12500
C883        C  0.50624783  0.66967142  0.87048044    -0.10900
C884        C  0.97729610  0.69323161  0.85160761    -0.12500
C885        C  0.61017478  0.59776768  0.82142547    -0.10900
C886        C  0.62230851  0.61509938  0.79969492    -0.12500
C887        C  0.62242948  0.62896306  0.54972376    -0.10900
C888        C  0.61026796  0.64628930  0.57143721    -0.12500
C889        C  0.97712993  0.55090078  0.60161839    -0.10900
C890        C  0.50608953  0.57446723  0.62045568    -0.12500
C891        C  0.99433820  0.82446436  0.61757519    -0.10900
C892        C  0.52329967  0.80090048  0.63641231    -0.12500
C893        C  0.76586494  0.75759934  0.74712631    -0.10900
C894        C  0.73464330  0.73633294  0.74098829    -0.12500
C895        C  0.99871463  0.75813938  0.75599722    -0.10900
C896        C  0.50170930  0.73611560  0.73188075    -0.12500
loop_ 
_geom_bond_atom_site_label_1 
_geom_bond_atom_site_label_2 
_geom_bond_distance 
_geom_bond_site_symmetry_2 
_ccdc_geom_bond_type 
Fe1          O17   2.023       .  S
Fe1           O7   2.141       .  S
Fe1          O14   2.092       .  S
Fe1           O6   2.005       .  S
Fe1          O12   1.916       .  S
Fe2           O5   2.021       .  S
Fe2           O9   2.152       .  S
Fe2          O13   2.044       .  S
Fe2          O18   2.144       .  S
Fe2          O12   1.909       .  S
Fe3          O21   2.145       .  S
Fe3           O8   2.017       .  S
Fe3          O15   2.024       .  S
Fe3           O4   2.156       .  S
Fe3          O12   1.927       .  S
O4           C11   1.281       .  A
O5           C19   1.259       .  A
O6           C11   1.242       .  A
O7           C10   1.284       .  A
O8           C20   1.261       .  A
O9           C22   1.292       .  A
C10          O15   1.263       .  A
C10         C108   1.437       .  S
C11         C112   1.431       .  S
O13          C16   1.259       .  A
O14          C16   1.273       .  A
C16         C102   1.443       .  S
O17          C22   1.264       .  A
O18          C20   1.287       .  A
C19          O21   1.286       .  A
C19         C104   1.441       .  S
C20         C106   1.438       .  S
C22         C110   1.450       .  S
Fe23         O29   2.005       .  S
Fe23         O36   2.023       .  S
Fe23        O151   2.092       .  S
Fe23        O252   2.141   1_545  S
Fe23         O34   1.916       .  S
Fe24         O27   2.144       .  S
Fe24         O35   2.152       .  S
Fe24         O40   2.021       .  S
Fe24        O143   2.045       .  S
Fe24         O34   1.909       .  S
Fe25         O43   2.017       .  S
Fe25         O30   2.145       .  S
Fe25         O37   2.156       .  S
Fe25        O250   2.024       .  S
Fe25         O34   1.927       .  S
O26        Fe249   2.024       .  S
O26          C33   1.262       .  A
O27          C41   1.287       .  A
O28        Fe247   2.141       .  S
O28          C33   1.284       .  A
O29          C32   1.242       .  A
O30          C42   1.286       .  A
O31        Fe136   2.045       .  S
O31          C44   1.259   1_556  A
C32          O37   1.281       .  A
C32          C95   1.431       .  S
C33          C98   1.437       .  S
O35          C38   1.292       .  A
O36          C38   1.264       .  A
C38          C93   1.450       .  S
O39        Fe135   2.092   1_554  S
O39          C44   1.273       .  A
O40          C42   1.259       .  A
C41          O43   1.261       .  A
C41          C99   1.438       .  S
C42         C101   1.441       .  S
C44         C103   1.443       .  S
Fe45         O61   2.092       .  S
Fe45         O51   2.005       .  S
Fe45         O58   2.023       .  S
Fe45         O50   2.141       .  S
Fe45         O56   1.916       .  S
Fe46         O49   2.144       .  S
Fe46         O53   2.045       .  S
Fe46         O57   2.152       .  S
Fe46         O62   2.021       .  S
Fe46         O56   1.909       .  S
Fe47         O65   2.017       .  S
Fe47         O52   2.145       .  S
Fe47         O59   2.156       .  S
Fe47         O48   2.024       .  S
Fe47         O56   1.927       .  S
O48          C55   1.262       .  A
O49          C63   1.287       .  A
O50          C55   1.284       .  A
O51          C54   1.242       .  A
O52          C64   1.286       .  A
O53          C66   1.259       .  A
C54          O59   1.281       .  A
C54         C111   1.431       .  S
C55         C100   1.437       .  S
O57          C60   1.292       .  A
O58          C60   1.264       .  A
C60         C109   1.450       .  S
O61          C66   1.273       .  A
O62          C64   1.259       .  A
C63          O65   1.261       .  A
C63          C97   1.438       .  S
C64          C89   1.441       .  S
C66          C91   1.443       .  S
Fe67         O83   2.023       .  S
Fe67         O72   2.005       .  S
Fe67        O297   2.141       .  S
Fe67        O192   2.092   1_554  S
Fe67         O78   1.916       .  S
Fe68         O71   2.021       .  S
Fe68         O75   2.152       .  S
Fe68         O84   2.144       .  S
Fe68        O191   2.044   1_554  S
Fe68         O78   1.909       .  S
Fe69         O87   2.145       .  S
Fe69         O74   2.017       .  S
Fe69         O81   2.024       .  S
Fe69         O70   2.156       .  S
Fe69         O78   1.927       .  S
O70          C77   1.281       .  A
O71          C85   1.259       .  A
O72          C77   1.242       .  A
O73        Fe291   2.141   1_545  S
O73          C76   1.284       .  A
O74          C86   1.261       .  A
O75          C88   1.292       .  A
C76         O305   1.263   1_545  A
C76         C105   1.437       .  S
C77          C96   1.431       .  S
O79        Fe180   2.044       .  S
O79          C82   1.259       .  A
O80        Fe179   2.092       .  S
O80          C82   1.273       .  A
O81         C300   1.263       .  A
C82          C90   1.443       .  S
O83          C88   1.264       .  A
O84          C86   1.287       .  A
C85          O87   1.286       .  A
C85          C92   1.441       .  S
C86         C107   1.438       .  S
C88         C206   1.450   1_554  S
C89          C90   1.212       .  T
C91          C92   1.212       .  T
C93         C318   1.216   1_545  T
C94         C200   1.450       .  S
C94         C317   1.216       .  T
C95         C880   1.208   1_445  T
C96         C879   1.208   1_554  T
C97         C546   1.209       .  T
C98         C545   1.209   1_455  T
C99         C548   1.209   1_455  T
C100        C547   1.209       .  T
C101        C102   1.212       .  T
C103        C104   1.212       .  T
C105        C554   1.209       .  T
C106        C553   1.209   1_455  T
C107        C556   1.209       .  T
C108        C555   1.209   1_455  T
C109        C110   1.216       .  T
C111        C560   1.208       .  T
C112        C559   1.208   1_455  T
Fe113       O129   2.023       .  S
Fe113       O119   2.141       .  S
Fe113       O126   2.092       .  S
Fe113       O118   2.005       .  S
Fe113       O124   1.916       .  S
Fe114       O117   2.021       .  S
Fe114       O121   2.152       .  S
Fe114       O125   2.044       .  S
Fe114       O130   2.144       .  S
Fe114       O124   1.909       .  S
Fe115       O133   2.145       .  S
Fe115       O120   2.017       .  S
Fe115       O127   2.024       .  S
Fe115       O116   2.156       .  S
Fe115       O124   1.927       .  S
O116        C123   1.281       .  A
O117        C131   1.259       .  A
O118        C123   1.242       .  A
O119        C122   1.284       .  A
O120        C132   1.261       .  A
O121        C134   1.292       .  A
C122        O127   1.263       .  A
C122        C220   1.437       .  S
C123        C224   1.431       .  S
O125        C128   1.259       .  A
O126        C128   1.273       .  A
C128        C214   1.443       .  S
O129        C134   1.264       .  A
O130        C132   1.287       .  A
C131        O133   1.286       .  A
C131        C216   1.441       .  S
C132        C218   1.438       .  S
C134        C222   1.450       .  S
Fe135       O141   2.005       .  S
Fe135       O148   2.023       .  S
Fe135       O364   2.141   1_545  S
Fe135       O146   1.916       .  S
Fe136       O139   2.144       .  S
Fe136       O147   2.152       .  S
Fe136       O152   2.021       .  S
Fe136       O146   1.909       .  S
Fe137       O155   2.017       .  S
Fe137       O142   2.145       .  S
Fe137       O149   2.156       .  S
Fe137       O362   2.024       .  S
Fe137       O146   1.927       .  S
O138       Fe361   2.024       .  S
O138        C145   1.262       .  A
O139        C153   1.287       .  A
O140       Fe359   2.141       .  S
O140        C145   1.284       .  A
O141        C144   1.242       .  A
O142        C154   1.286       .  A
O143        C156   1.259       .  A
C144        O149   1.281       .  A
C144        C207   1.431       .  S
C145        C210   1.437       .  S
O147        C150   1.292       .  A
O148        C150   1.264       .  A
C150        C205   1.450       .  S
O151        C156   1.273       .  A
O152        C154   1.259       .  A
C153        O155   1.261       .  A
C153        C211   1.438       .  S
C154        C213   1.441       .  S
C156        C215   1.443       .  S
Fe157       O173   2.092       .  S
Fe157       O163   2.005       .  S
Fe157       O170   2.023       .  S
Fe157       O162   2.141       .  S
Fe157       O168   1.916       .  S
Fe158       O161   2.144       .  S
Fe158       O165   2.045       .  S
Fe158       O169   2.152       .  S
Fe158       O174   2.021       .  S
Fe158       O168   1.909       .  S
Fe159       O177   2.017       .  S
Fe159       O164   2.145       .  S
Fe159       O171   2.156       .  S
Fe159       O160   2.024       .  S
Fe159       O168   1.927       .  S
O160        C167   1.262       .  A
O161        C175   1.287       .  A
O162        C167   1.284       .  A
O163        C166   1.242       .  A
O164        C176   1.286       .  A
O165        C178   1.259       .  A
C166        O171   1.281       .  A
C166        C223   1.431       .  S
C167        C212   1.437       .  S
O169        C172   1.292       .  A
O170        C172   1.264       .  A
C172        C221   1.450       .  S
O173        C178   1.273       .  A
O174        C176   1.259       .  A
C175        O177   1.261       .  A
C175        C209   1.438       .  S
C176        C201   1.441       .  S
C178        C203   1.443       .  S
Fe179       O195   2.023       .  S
Fe179       O409   2.141       .  S
Fe179       O184   2.005       .  S
Fe179       O190   1.916       .  S
Fe180       O183   2.021       .  S
Fe180       O187   2.152       .  S
Fe180       O196   2.144       .  S
Fe180       O190   1.909       .  S
Fe181       O199   2.145       .  S
Fe181       O186   2.017       .  S
Fe181       O193   2.024       .  S
Fe181       O182   2.156       .  S
Fe181       O190   1.927       .  S
O182        C189   1.281       .  A
O183        C197   1.259       .  A
O184        C189   1.242       .  A
O185       Fe403   2.141   1_545  S
O185        C188   1.284       .  A
O186        C198   1.261       .  A
O187        C200   1.292       .  A
C188        O417   1.263   1_545  A
C188        C217   1.437       .  S
C189        C208   1.431       .  S
O191        C194   1.259       .  A
O192        C194   1.273       .  A
O193        C412   1.263       .  A
C194        C202   1.443       .  S
O195        C200   1.264       .  A
O196        C198   1.287       .  A
C197        O199   1.286       .  A
C197        C204   1.441       .  S
C198        C219   1.438       .  S
C201        C202   1.212       .  T
C203        C204   1.212       .  T
C205        C430   1.216   1_545  T
C206        C429   1.216       .  T
C207        C768   1.208   1_446  T
C208        C767   1.208       .  T
C209        C658   1.209       .  T
C210        C657   1.209   1_455  T
C211        C660   1.209   1_455  T
C212        C659   1.209       .  T
C213        C214   1.212       .  T
C215        C216   1.212       .  T
C217        C666   1.209       .  T
C218        C665   1.209   1_455  T
C219        C668   1.209       .  T
C220        C667   1.209   1_455  T
C221        C222   1.216       .  T
C223        C672   1.208       .  T
C224        C671   1.208   1_455  T
Fe225       O241   2.023       .  S
Fe225       O231   2.141       .  S
Fe225       O238   2.092       .  S
Fe225       O230   2.005       .  S
Fe225       O236   1.916       .  S
Fe226       O229   2.021       .  S
Fe226       O233   2.152       .  S
Fe226       O237   2.044       .  S
Fe226       O242   2.144       .  S
Fe226       O236   1.909       .  S
Fe227       O245   2.145       .  S
Fe227       O232   2.017       .  S
Fe227       O239   2.024       .  S
Fe227       O228   2.156       .  S
Fe227       O236   1.927       .  S
O228        C235   1.281       .  A
O229        C243   1.259       .  A
O230        C235   1.242       .  A
O231        C234   1.284       .  A
O232        C244   1.261       .  A
O233        C246   1.292       .  A
C234        O239   1.263       .  A
C234        C332   1.437       .  S
C235        C336   1.431       .  S
O237        C240   1.259       .  A
O238        C240   1.273       .  A
C240        C326   1.443       .  S
O241        C246   1.264       .  A
O242        C244   1.287       .  A
C243        O245   1.286       .  A
C243        C328   1.441       .  S
C244        C330   1.438       .  S
C246        C334   1.450       .  S
Fe247       O375   2.092       .  S
Fe247       O253   2.005       .  S
Fe247       O260   2.023       .  S
Fe247       O258   1.916       .  S
Fe248       O251   2.144       .  S
Fe248       O367   2.045       .  S
Fe248       O259   2.152       .  S
Fe248       O264   2.021       .  S
Fe248       O258   1.909       .  S
Fe249       O267   2.017       .  S
Fe249       O254   2.145       .  S
Fe249       O261   2.156       .  S
Fe249       O258   1.927       .  S
O250        C257   1.262   1_545  A
O251        C265   1.287       .  A
O252        C257   1.284       .  A
O253        C256   1.242       .  A
O254        C266   1.286       .  A
O255       Fe360   2.045       .  S
O255        C268   1.259   1_556  A
C256        O261   1.281       .  A
C256        C319   1.431       .  S
C257        C322   1.437       .  S
O259        C262   1.292       .  A
O260        C262   1.264       .  A
C262        C317   1.450       .  S
O263       Fe359   2.092   1_554  S
O263        C268   1.273       .  A
O264        C266   1.259       .  A
C265        O267   1.261       .  A
C265        C323   1.438       .  S
C266        C325   1.441       .  S
C268        C327   1.443       .  S
Fe269       O285   2.092       .  S
Fe269       O275   2.005       .  S
Fe269       O282   2.023       .  S
Fe269       O274   2.141       .  S
Fe269       O280   1.916       .  S
Fe270       O273   2.144       .  S
Fe270       O277   2.045       .  S
Fe270       O281   2.152       .  S
Fe270       O286   2.021       .  S
Fe270       O280   1.909       .  S
Fe271       O289   2.017       .  S
Fe271       O276   2.145       .  S
Fe271       O283   2.156       .  S
Fe271       O272   2.024       .  S
Fe271       O280   1.927       .  S
O272        C279   1.262       .  A
O273        C287   1.287       .  A
O274        C279   1.284       .  A
O275        C278   1.242       .  A
O276        C288   1.286       .  A
O277        C290   1.259       .  A
C278        O283   1.281       .  A
C278        C335   1.431       .  S
C279        C324   1.437       .  S
O281        C284   1.292       .  A
O282        C284   1.264       .  A
C284        C333   1.450       .  S
O285        C290   1.273       .  A
O286        C288   1.259       .  A
C287        O289   1.261       .  A
C287        C321   1.438       .  S
C288        C313   1.441       .  S
C290        C315   1.443       .  S
Fe291       O307   2.023       .  S
Fe291       O416   2.092   1_554  S
Fe291       O296   2.005       .  S
Fe291       O302   1.916       .  S
Fe292       O295   2.021       .  S
Fe292       O299   2.152       .  S
Fe292       O415   2.044   1_554  S
Fe292       O308   2.144       .  S
Fe292       O302   1.909       .  S
Fe293       O311   2.145       .  S
Fe293       O298   2.017       .  S
Fe293       O305   2.024       .  S
Fe293       O294   2.156       .  S
Fe293       O302   1.927       .  S
O294        C301   1.281       .  A
O295        C309   1.259       .  A
O296        C301   1.242       .  A
O297        C300   1.284       .  A
O298        C310   1.261       .  A
O299        C312   1.292       .  A
C300        C329   1.437       .  S
C301        C320   1.431       .  S
O303       Fe404   2.044       .  S
O303        C306   1.259       .  A
O304       Fe403   2.092       .  S
O304        C306   1.273       .  A
C306        C314   1.443       .  S
O307        C312   1.264       .  A
O308        C310   1.287       .  A
C309        O311   1.286       .  A
C309        C316   1.441       .  S
C310        C331   1.438       .  S
C312        C430   1.450   1_554  S
C313        C314   1.212       .  T
C315        C316   1.212       .  T
C318        C424   1.450       .  S
C319        C656   1.208   1_455  T
C320        C655   1.208   1_564  T
C321        C770   1.209       .  T
C322        C769   1.209   1_455  T
C323        C772   1.209   1_455  T
C324        C771   1.209       .  T
C325        C326   1.212       .  T
C327        C328   1.212       .  T
C329        C778   1.209       .  T
C330        C777   1.209   1_455  T
C331        C780   1.209       .  T
C332        C779   1.209   1_455  T
C333        C334   1.216       .  T
C335        C784   1.208       .  T
C336        C783   1.208   1_455  T
Fe337       O353   2.023       .  S
Fe337       O343   2.141       .  S
Fe337       O350   2.092       .  S
Fe337       O342   2.005       .  S
Fe337       O348   1.916       .  S
Fe338       O341   2.021       .  S
Fe338       O345   2.152       .  S
Fe338       O349   2.044       .  S
Fe338       O354   2.144       .  S
Fe338       O348   1.909       .  S
Fe339       O357   2.145       .  S
Fe339       O344   2.017       .  S
Fe339       O351   2.024       .  S
Fe339       O340   2.156       .  S
Fe339       O348   1.927       .  S
O340        C347   1.281       .  A
O341        C355   1.259       .  A
O342        C347   1.242       .  A
O343        C346   1.284       .  A
O344        C356   1.261       .  A
O345        C358   1.292       .  A
C346        O351   1.263       .  A
C346        C444   1.437       .  S
C347        C448   1.431       .  S
O349        C352   1.259       .  A
O350        C352   1.273       .  A
C352        C438   1.443       .  S
O353        C358   1.264       .  A
O354        C356   1.287       .  A
C355        O357   1.286       .  A
C355        C440   1.441       .  S
C356        C442   1.438       .  S
C358        C446   1.450       .  S
Fe359       O365   2.005       .  S
Fe359       O372   2.023       .  S
Fe359       O370   1.916       .  S
Fe360       O363   2.144       .  S
Fe360       O371   2.152       .  S
Fe360       O376   2.021       .  S
Fe360       O370   1.909       .  S
Fe361       O379   2.017       .  S
Fe361       O366   2.145       .  S
Fe361       O373   2.156       .  S
Fe361       O370   1.927       .  S
O362        C369   1.262   1_545  A
O363        C377   1.287       .  A
O364        C369   1.284       .  A
O365        C368   1.242       .  A
O366        C378   1.286       .  A
O367        C380   1.259       .  A
C368        O373   1.281       .  A
C368        C431   1.431       .  S
C369        C434   1.437       .  S
O371        C374   1.292       .  A
O372        C374   1.264       .  A
C374        C429   1.450       .  S
O375        C380   1.273       .  A
O376        C378   1.259       .  A
C377        O379   1.261       .  A
C377        C435   1.438       .  S
C378        C437   1.441       .  S
C380        C439   1.443       .  S
Fe381       O397   2.092       .  S
Fe381       O387   2.005       .  S
Fe381       O394   2.023       .  S
Fe381       O386   2.141       .  S
Fe381       O392   1.916       .  S
Fe382       O385   2.144       .  S
Fe382       O389   2.045       .  S
Fe382       O393   2.152       .  S
Fe382       O398   2.021       .  S
Fe382       O392   1.909       .  S
Fe383       O401   2.017       .  S
Fe383       O388   2.145       .  S
Fe383       O395   2.156       .  S
Fe383       O384   2.024       .  S
Fe383       O392   1.927       .  S
O384        C391   1.262       .  A
O385        C399   1.287       .  A
O386        C391   1.284       .  A
O387        C390   1.242       .  A
O388        C400   1.286       .  A
O389        C402   1.259       .  A
C390        O395   1.281       .  A
C390        C447   1.431       .  S
C391        C436   1.437       .  S
O393        C396   1.292       .  A
O394        C396   1.264       .  A
C396        C445   1.450       .  S
O397        C402   1.273       .  A
O398        C400   1.259       .  A
C399        O401   1.261       .  A
C399        C433   1.438       .  S
C400        C425   1.441       .  S
C402        C427   1.443       .  S
Fe403       O419   2.023       .  S
Fe403       O408   2.005       .  S
Fe403       O414   1.916       .  S
Fe404       O407   2.021       .  S
Fe404       O411   2.152       .  S
Fe404       O420   2.144       .  S
Fe404       O414   1.909       .  S
Fe405       O423   2.145       .  S
Fe405       O410   2.017       .  S
Fe405       O417   2.024       .  S
Fe405       O406   2.156       .  S
Fe405       O414   1.927       .  S
O406        C413   1.281       .  A
O407        C421   1.259       .  A
O408        C413   1.242       .  A
O409        C412   1.284       .  A
O410        C422   1.261       .  A
O411        C424   1.292       .  A
C412        C441   1.437       .  S
C413        C432   1.431       .  S
O415        C418   1.259       .  A
O416        C418   1.273       .  A
C418        C426   1.443       .  S
O419        C424   1.264       .  A
O420        C422   1.287       .  A
C421        O423   1.286       .  A
C421        C428   1.441       .  S
C422        C443   1.438       .  S
C425        C426   1.212       .  T
C427        C428   1.212       .  T
C431        C544   1.208   1_456  T
C432        C543   1.208   1_565  T
C433        C882   1.209       .  T
C434        C881   1.209   1_455  T
C435        C884   1.209   1_455  T
C436        C883   1.209       .  T
C437        C438   1.212       .  T
C439        C440   1.212       .  T
C441        C890   1.209       .  T
C442        C889   1.209   1_455  T
C443        C892   1.209       .  T
C444        C891   1.209   1_455  T
C445        C446   1.216       .  T
C447        C896   1.208       .  T
C448        C895   1.208   1_455  T
Fe449       O465   2.023       .  S
Fe449       O455   2.141       .  S
Fe449       O462   2.092       .  S
Fe449       O454   2.005       .  S
Fe449       O460   1.916       .  S
Fe450       O453   2.021       .  S
Fe450       O457   2.152       .  S
Fe450       O461   2.044       .  S
Fe450       O466   2.144       .  S
Fe450       O460   1.909       .  S
Fe451       O469   2.145       .  S
Fe451       O456   2.017       .  S
Fe451       O463   2.024       .  S
Fe451       O452   2.156       .  S
Fe451       O460   1.927       .  S
O452        C459   1.281       .  A
O453        C467   1.259       .  A
O454        C459   1.242       .  A
O455        C458   1.284       .  A
O456        C468   1.261       .  A
O457        C470   1.292       .  A
C458        O463   1.263       .  A
C458        C556   1.437       .  S
C459        C560   1.431       .  S
O461        C464   1.259       .  A
O462        C464   1.273       .  A
C464        C550   1.443       .  S
O465        C470   1.264       .  A
O466        C468   1.287       .  A
C467        O469   1.286       .  A
C467        C552   1.441       .  S
C468        C554   1.438       .  S
C470        C558   1.450       .  S
Fe471       O599   2.092       .  S
Fe471       O477   2.005       .  S
Fe471       O484   2.023       .  S
Fe471       O700   2.141   1_545  S
Fe471       O482   1.916       .  S
Fe472       O475   2.144       .  S
Fe472       O591   2.045       .  S
Fe472       O483   2.152       .  S
Fe472       O488   2.021       .  S
Fe472       O482   1.909       .  S
Fe473       O491   2.017       .  S
Fe473       O478   2.145       .  S
Fe473       O485   2.156       .  S
Fe473       O698   2.024       .  S
Fe473       O482   1.927       .  S
O474       Fe697   2.024       .  S
O474        C481   1.262       .  A
O475        C489   1.287       .  A
O476       Fe695   2.141       .  S
O476        C481   1.284       .  A
O477        C480   1.242       .  A
O478        C490   1.286       .  A
O479       Fe584   2.045       .  S
O479        C492   1.259   1_556  A
C480        O485   1.281       .  A
C480        C543   1.431       .  S
C481        C546   1.437       .  S
O483        C486   1.292       .  A
O484        C486   1.264       .  A
C486        C541   1.450       .  S
O487       Fe583   2.092   1_554  S
O487        C492   1.273       .  A
O488        C490   1.259       .  A
C489        O491   1.261       .  A
C489        C547   1.438       .  S
C490        C549   1.441       .  S
C492        C551   1.443       .  S
Fe493       O509   2.092       .  S
Fe493       O499   2.005       .  S
Fe493       O506   2.023       .  S
Fe493       O498   2.141       .  S
Fe493       O504   1.916       .  S
Fe494       O497   2.144       .  S
Fe494       O501   2.045       .  S
Fe494       O505   2.152       .  S
Fe494       O510   2.021       .  S
Fe494       O504   1.909       .  S
Fe495       O513   2.017       .  S
Fe495       O500   2.145       .  S
Fe495       O507   2.156       .  S
Fe495       O496   2.024       .  S
Fe495       O504   1.927       .  S
O496        C503   1.262       .  A
O497        C511   1.287       .  A
O498        C503   1.284       .  A
O499        C502   1.242       .  A
O500        C512   1.286       .  A
O501        C514   1.259       .  A
C502        O507   1.281       .  A
C502        C559   1.431       .  S
C503        C548   1.437       .  S
O505        C508   1.292       .  A
O506        C508   1.264       .  A
C508        C557   1.450       .  S
O509        C514   1.273       .  A
O510        C512   1.259       .  A
C511        O513   1.261       .  A
C511        C545   1.438       .  S
C512        C537   1.441       .  S
C514        C539   1.443       .  S
Fe515       O531   2.023       .  S
Fe515       O745   2.141       .  S
Fe515       O640   2.092   1_554  S
Fe515       O520   2.005       .  S
Fe515       O526   1.916       .  S
Fe516       O519   2.021       .  S
Fe516       O523   2.152       .  S
Fe516       O639   2.044   1_554  S
Fe516       O532   2.144       .  S
Fe516       O526   1.909       .  S
Fe517       O535   2.145       .  S
Fe517       O522   2.017       .  S
Fe517       O529   2.024       .  S
Fe517       O518   2.156       .  S
Fe517       O526   1.927       .  S
O518        C525   1.281       .  A
O519        C533   1.259       .  A
O520        C525   1.242       .  A
O521       Fe739   2.141   1_545  S
O521        C524   1.284       .  A
O522        C534   1.261       .  A
O523        C536   1.292       .  A
C524        O753   1.263   1_545  A
C524        C553   1.437       .  S
C525        C544   1.431       .  S
O527       Fe628   2.044       .  S
O527        C530   1.259       .  A
O528       Fe627   2.092       .  S
O528        C530   1.273       .  A
O529        C748   1.263       .  A
C530        C538   1.443       .  S
O531        C536   1.264       .  A
O532        C534   1.287       .  A
C533        O535   1.286       .  A
C533        C540   1.441       .  S
C534        C555   1.438       .  S
C536        C654   1.450   1_554  S
C537        C538   1.212       .  T
C539        C540   1.212       .  T
C541        C766   1.216   1_545  T
C542        C648   1.450       .  S
C542        C765   1.216       .  T
C549        C550   1.212       .  T
C551        C552   1.212       .  T
C557        C558   1.216       .  T
Fe561       O577   2.023       .  S
Fe561       O567   2.141       .  S
Fe561       O574   2.092       .  S
Fe561       O566   2.005       .  S
Fe561       O572   1.916       .  S
Fe562       O565   2.021       .  S
Fe562       O569   2.152       .  S
Fe562       O573   2.044       .  S
Fe562       O578   2.144       .  S
Fe562       O572   1.909       .  S
Fe563       O581   2.145       .  S
Fe563       O568   2.017       .  S
Fe563       O575   2.024       .  S
Fe563       O564   2.156       .  S
Fe563       O572   1.927       .  S
O564        C571   1.281       .  A
O565        C579   1.259       .  A
O566        C571   1.242       .  A
O567        C570   1.284       .  A
O568        C580   1.261       .  A
O569        C582   1.292       .  A
C570        O575   1.263       .  A
C570        C668   1.437       .  S
C571        C672   1.431       .  S
O573        C576   1.259       .  A
O574        C576   1.273       .  A
C576        C662   1.443       .  S
O577        C582   1.264       .  A
O578        C580   1.287       .  A
C579        O581   1.286       .  A
C579        C664   1.441       .  S
C580        C666   1.438       .  S
C582        C670   1.450       .  S
Fe583       O589   2.005       .  S
Fe583       O596   2.023       .  S
Fe583       O812   2.141   1_545  S
Fe583       O594   1.916       .  S
Fe584       O587   2.144       .  S
Fe584       O595   2.152       .  S
Fe584       O600   2.021       .  S
Fe584       O594   1.909       .  S
Fe585       O603   2.017       .  S
Fe585       O590   2.145       .  S
Fe585       O597   2.156       .  S
Fe585       O810   2.024       .  S
Fe585       O594   1.927       .  S
O586       Fe809   2.024       .  S
O586        C593   1.262       .  A
O587        C601   1.287       .  A
O588       Fe807   2.141       .  S
O588        C593   1.284       .  A
O589        C592   1.242       .  A
O590        C602   1.286       .  A
O591        C604   1.259       .  A
C592        O597   1.281       .  A
C592        C655   1.431       .  S
C593        C658   1.437       .  S
O595        C598   1.292       .  A
O596        C598   1.264       .  A
C598        C653   1.450       .  S
O599        C604   1.273       .  A
O600        C602   1.259       .  A
C601        O603   1.261       .  A
C601        C659   1.438       .  S
C602        C661   1.441       .  S
C604        C663   1.443       .  S
Fe605       O621   2.092       .  S
Fe605       O611   2.005       .  S
Fe605       O618   2.023       .  S
Fe605       O610   2.141       .  S
Fe605       O616   1.916       .  S
Fe606       O609   2.144       .  S
Fe606       O613   2.045       .  S
Fe606       O617   2.152       .  S
Fe606       O622   2.021       .  S
Fe606       O616   1.909       .  S
Fe607       O625   2.017       .  S
Fe607       O612   2.145       .  S
Fe607       O619   2.156       .  S
Fe607       O608   2.024       .  S
Fe607       O616   1.927       .  S
O608        C615   1.262       .  A
O609        C623   1.287       .  A
O610        C615   1.284       .  A
O611        C614   1.242       .  A
O612        C624   1.286       .  A
O613        C626   1.259       .  A
C614        O619   1.281       .  A
C614        C671   1.431       .  S
C615        C660   1.437       .  S
O617        C620   1.292       .  A
O618        C620   1.264       .  A
C620        C669   1.450       .  S
O621        C626   1.273       .  A
O622        C624   1.259       .  A
C623        O625   1.261       .  A
C623        C657   1.438       .  S
C624        C649   1.441       .  S
C626        C651   1.443       .  S
Fe627       O643   2.023       .  S
Fe627       O857   2.141       .  S
Fe627       O632   2.005       .  S
Fe627       O638   1.916       .  S
Fe628       O631   2.021       .  S
Fe628       O635   2.152       .  S
Fe628       O644   2.144       .  S
Fe628       O638   1.909       .  S
Fe629       O647   2.145       .  S
Fe629       O634   2.017       .  S
Fe629       O641   2.024       .  S
Fe629       O630   2.156       .  S
Fe629       O638   1.927       .  S
O630        C637   1.281       .  A
O631        C645   1.259       .  A
O632        C637   1.242       .  A
O633       Fe851   2.141   1_545  S
O633        C636   1.284       .  A
O634        C646   1.261       .  A
O635        C648   1.292       .  A
C636        O865   1.263   1_545  A
C636        C665   1.437       .  S
C637        C656   1.431       .  S
O639        C642   1.259       .  A
O640        C642   1.273       .  A
O641        C860   1.263       .  A
C642        C650   1.443       .  S
O643        C648   1.264       .  A
O644        C646   1.287       .  A
C645        O647   1.286       .  A
C645        C652   1.441       .  S
C646        C667   1.438       .  S
C649        C650   1.212       .  T
C651        C652   1.212       .  T
C653        C878   1.216   1_545  T
C654        C877   1.216       .  T
C661        C662   1.212       .  T
C663        C664   1.212       .  T
C669        C670   1.216       .  T
Fe673       O689   2.023       .  S
Fe673       O679   2.141       .  S
Fe673       O686   2.092       .  S
Fe673       O678   2.005       .  S
Fe673       O684   1.916       .  S
Fe674       O677   2.021       .  S
Fe674       O681   2.152       .  S
Fe674       O685   2.044       .  S
Fe674       O690   2.144       .  S
Fe674       O684   1.909       .  S
Fe675       O693   2.145       .  S
Fe675       O680   2.017       .  S
Fe675       O687   2.024       .  S
Fe675       O676   2.156       .  S
Fe675       O684   1.927       .  S
O676        C683   1.281       .  A
O677        C691   1.259       .  A
O678        C683   1.242       .  A
O679        C682   1.284       .  A
O680        C692   1.261       .  A
O681        C694   1.292       .  A
C682        O687   1.263       .  A
C682        C780   1.437       .  S
C683        C784   1.431       .  S
O685        C688   1.259       .  A
O686        C688   1.273       .  A
C688        C774   1.443       .  S
O689        C694   1.264       .  A
O690        C692   1.287       .  A
C691        O693   1.286       .  A
C691        C776   1.441       .  S
C692        C778   1.438       .  S
C694        C782   1.450       .  S
Fe695       O823   2.092       .  S
Fe695       O701   2.005       .  S
Fe695       O708   2.023       .  S
Fe695       O706   1.916       .  S
Fe696       O699   2.144       .  S
Fe696       O815   2.045       .  S
Fe696       O707   2.152       .  S
Fe696       O712   2.021       .  S
Fe696       O706   1.909       .  S
Fe697       O715   2.017       .  S
Fe697       O702   2.145       .  S
Fe697       O709   2.156       .  S
Fe697       O706   1.927       .  S
O698        C705   1.262   1_545  A
O699        C713   1.287       .  A
O700        C705   1.284       .  A
O701        C704   1.242       .  A
O702        C714   1.286       .  A
O703       Fe808   2.045       .  S
O703        C716   1.259   1_556  A
C704        O709   1.281       .  A
C704        C767   1.431       .  S
C705        C770   1.437       .  S
O707        C710   1.292       .  A
O708        C710   1.264       .  A
C710        C765   1.450       .  S
O711       Fe807   2.092   1_554  S
O711        C716   1.273       .  A
O712        C714   1.259       .  A
C713        O715   1.261       .  A
C713        C771   1.438       .  S
C714        C773   1.441       .  S
C716        C775   1.443       .  S
Fe717       O733   2.092       .  S
Fe717       O723   2.005       .  S
Fe717       O730   2.023       .  S
Fe717       O722   2.141       .  S
Fe717       O728   1.916       .  S
Fe718       O721   2.144       .  S
Fe718       O725   2.045       .  S
Fe718       O729   2.152       .  S
Fe718       O734   2.021       .  S
Fe718       O728   1.909       .  S
Fe719       O737   2.017       .  S
Fe719       O724   2.145       .  S
Fe719       O731   2.156       .  S
Fe719       O720   2.024       .  S
Fe719       O728   1.927       .  S
O720        C727   1.262       .  A
O721        C735   1.287       .  A
O722        C727   1.284       .  A
O723        C726   1.242       .  A
O724        C736   1.286       .  A
O725        C738   1.259       .  A
C726        O731   1.281       .  A
C726        C783   1.431       .  S
C727        C772   1.437       .  S
O729        C732   1.292       .  A
O730        C732   1.264       .  A
C732        C781   1.450       .  S
O733        C738   1.273       .  A
O734        C736   1.259       .  A
C735        O737   1.261       .  A
C735        C769   1.438       .  S
C736        C761   1.441       .  S
C738        C763   1.443       .  S
Fe739       O755   2.023       .  S
Fe739       O864   2.092   1_554  S
Fe739       O744   2.005       .  S
Fe739       O750   1.916       .  S
Fe740       O743   2.021       .  S
Fe740       O747   2.152       .  S
Fe740       O863   2.044   1_554  S
Fe740       O756   2.144       .  S
Fe740       O750   1.909       .  S
Fe741       O759   2.145       .  S
Fe741       O746   2.017       .  S
Fe741       O753   2.024       .  S
Fe741       O742   2.156       .  S
Fe741       O750   1.927       .  S
O742        C749   1.281       .  A
O743        C757   1.259       .  A
O744        C749   1.242       .  A
O745        C748   1.284       .  A
O746        C758   1.261       .  A
O747        C760   1.292       .  A
C748        C777   1.437       .  S
C749        C768   1.431       .  S
O751       Fe852   2.044       .  S
O751        C754   1.259       .  A
O752       Fe851   2.092       .  S
O752        C754   1.273       .  A
C754        C762   1.443       .  S
O755        C760   1.264       .  A
O756        C758   1.287       .  A
C757        O759   1.286       .  A
C757        C764   1.441       .  S
C758        C779   1.438       .  S
C760        C878   1.450   1_554  S
C761        C762   1.212       .  T
C763        C764   1.212       .  T
C766        C872   1.450       .  S
C773        C774   1.212       .  T
C775        C776   1.212       .  T
C781        C782   1.216       .  T
Fe785       O801   2.023       .  S
Fe785       O791   2.141       .  S
Fe785       O798   2.092       .  S
Fe785       O790   2.005       .  S
Fe785       O796   1.916       .  S
Fe786       O789   2.021       .  S
Fe786       O793   2.152       .  S
Fe786       O797   2.044       .  S
Fe786       O802   2.144       .  S
Fe786       O796   1.909       .  S
Fe787       O805   2.145       .  S
Fe787       O792   2.017       .  S
Fe787       O799   2.024       .  S
Fe787       O788   2.156       .  S
Fe787       O796   1.927       .  S
O788        C795   1.281       .  A
O789        C803   1.259       .  A
O790        C795   1.242       .  A
O791        C794   1.284       .  A
O792        C804   1.261       .  A
O793        C806   1.292       .  A
C794        O799   1.263       .  A
C794        C892   1.437       .  S
C795        C896   1.431       .  S
O797        C800   1.259       .  A
O798        C800   1.273       .  A
C800        C886   1.443       .  S
O801        C806   1.264       .  A
O802        C804   1.287       .  A
C803        O805   1.286       .  A
C803        C888   1.441       .  S
C804        C890   1.438       .  S
C806        C894   1.450       .  S
Fe807       O813   2.005       .  S
Fe807       O820   2.023       .  S
Fe807       O818   1.916       .  S
Fe808       O811   2.144       .  S
Fe808       O819   2.152       .  S
Fe808       O824   2.021       .  S
Fe808       O818   1.909       .  S
Fe809       O827   2.017       .  S
Fe809       O814   2.145       .  S
Fe809       O821   2.156       .  S
Fe809       O818   1.927       .  S
O810        C817   1.262   1_545  A
O811        C825   1.287       .  A
O812        C817   1.284       .  A
O813        C816   1.242       .  A
O814        C826   1.286       .  A
O815        C828   1.259       .  A
C816        O821   1.281       .  A
C816        C879   1.431       .  S
C817        C882   1.437       .  S
O819        C822   1.292       .  A
O820        C822   1.264       .  A
C822        C877   1.450       .  S
O823        C828   1.273       .  A
O824        C826   1.259       .  A
C825        O827   1.261       .  A
C825        C883   1.438       .  S
C826        C885   1.441       .  S
C828        C887   1.443       .  S
Fe829       O845   2.092       .  S
Fe829       O835   2.005       .  S
Fe829       O842   2.023       .  S
Fe829       O834   2.141       .  S
Fe829       O840   1.916       .  S
Fe830       O833   2.144       .  S
Fe830       O837   2.045       .  S
Fe830       O841   2.152       .  S
Fe830       O846   2.021       .  S
Fe830       O840   1.909       .  S
Fe831       O849   2.017       .  S
Fe831       O836   2.145       .  S
Fe831       O843   2.156       .  S
Fe831       O832   2.024       .  S
Fe831       O840   1.927       .  S
O832        C839   1.262       .  A
O833        C847   1.287       .  A
O834        C839   1.284       .  A
O835        C838   1.242       .  A
O836        C848   1.286       .  A
O837        C850   1.259       .  A
C838        O843   1.281       .  A
C838        C895   1.431       .  S
C839        C884   1.437       .  S
O841        C844   1.292       .  A
O842        C844   1.264       .  A
C844        C893   1.450       .  S
O845        C850   1.273       .  A
O846        C848   1.259       .  A
C847        O849   1.261       .  A
C847        C881   1.438       .  S
C848        C873   1.441       .  S
C850        C875   1.443       .  S
Fe851       O867   2.023       .  S
Fe851       O856   2.005       .  S
Fe851       O862   1.916       .  S
Fe852       O855   2.021       .  S
Fe852       O859   2.152       .  S
Fe852       O868   2.144       .  S
Fe852       O862   1.909       .  S
Fe853       O871   2.145       .  S
Fe853       O858   2.017       .  S
Fe853       O865   2.024       .  S
Fe853       O854   2.156       .  S
Fe853       O862   1.927       .  S
O854        C861   1.281       .  A
O855        C869   1.259       .  A
O856        C861   1.242       .  A
O857        C860   1.284       .  A
O858        C870   1.261       .  A
O859        C872   1.292       .  A
C860        C889   1.437       .  S
C861        C880   1.431       .  S
O863        C866   1.259       .  A
O864        C866   1.273       .  A
C866        C874   1.443       .  S
O867        C872   1.264       .  A
O868        C870   1.287       .  A
C869        O871   1.286       .  A
C869        C876   1.441       .  S
C870        C891   1.438       .  S
C873        C874   1.212       .  T
C875        C876   1.212       .  T
C885        C886   1.212       .  T
C887        C888   1.212       .  T
C893        C894   1.216       .  T
