geometry optimzed in LAMMPS
_audit_creation_date              2020-11-30 
_audit_creation_method            'lammps2cif' 
_symmetry_space_group_name_H-M    'P1' 
_symmetry_Int_Tables_number       1 
_symmetry_cell_setting            triclinic 
loop_ 
_symmetry_equiv_pos_as_xyz 
  x,y,z 
_cell_length_a                    23.49955519642464 
_cell_length_b                    50.62394462621024 
_cell_length_c                    26.094287752507235 
_cell_angle_alpha                 90.1974122749354 
_cell_angle_beta                  90.24384191088575 
_cell_angle_gamma                 90.11608643628473 
loop_ 
_atom_site_label 
_atom_site_type_symbol 
_atom_site_fract_x 
_atom_site_fract_y 
_atom_site_fract_z 
_atom_site_charge 
O1          O  0.27008627  0.88029678  0.60127685    -0.79860
O2          O  0.26410491  0.88347290  0.37037468    -0.64550
O3          O  0.21582046  0.89114544  0.50929186    -1.11150
C4          C  0.16674701  0.80094416  0.49289667     1.07030
O5          O  0.18306837  0.86416243  0.35337245    -0.77760
O6          O  0.10636840  0.85333350  0.42552939    -0.65340
Ni7        Ni  0.26120399  0.91014464  0.55702755     1.34870
C8          C  0.08980854  0.86015905  0.46983236     0.85760
O9          O  0.25311041  0.92624462  0.43337047    -0.78300
O10         O  0.25273013  0.94083415  0.51538450    -0.88570
C11         C  0.23130578  0.87215163  0.33840200     0.85340
O12         O  0.33559210  0.90360190  0.53021901    -0.66770
O13         O  0.15952762  0.80680350  0.44586598    -0.86060
C14         C  0.35254439  0.89074779  0.49142100     0.86170
C15         C  0.25106738  0.94467498  0.46706646     1.07740
H16         H  0.25946551  0.84181494  0.44800673     0.39540
O17         O  0.22446616  0.85174567  0.44968878    -1.08720
O18         O  0.12236574  0.86022358  0.50897042    -0.65370
Ni19       Ni  0.20271143  0.85425399  0.52006869     1.26350
O20         O  0.31862231  0.88229432  0.45714056    -0.65600
O21         O  0.18741731  0.81696113  0.52632796    -0.77890
C22         C  0.22798663  0.86835581  0.62088727     0.85550
O23         O  0.18872561  0.85875175  0.59250240    -0.65070
Ni24       Ni  0.17315483  0.83620569  0.40178148     1.27450
Ni25       Ni  0.24049264  0.88859689  0.44021177     1.26060
H26         H  0.17951664  0.90007665  0.50870325     0.40090
O27         O  0.76960604  0.88011154  0.59656488    -0.79860
O28         O  0.76347939  0.88235670  0.36840027    -0.64550
O29         O  0.71496079  0.89062095  0.50623931    -1.11150
C30         C  0.65810225  0.80254881  0.49504557     1.07030
O31         O  0.68747715  0.85885316  0.34543154    -0.77760
O32         O  0.61013428  0.86026725  0.42225568    -0.65340
Ni33       Ni  0.76116038  0.90993688  0.55311100     1.34870
C34         C  0.59134823  0.86385553  0.46728354     0.85760
O35         O  0.75338735  0.92506890  0.43007238    -0.78300
O36         O  0.75375523  0.94055144  0.51137256    -0.88570
C37         C  0.73262302  0.87145998  0.33448322     0.85340
O38         O  0.83531569  0.90286937  0.52657655    -0.66770
O39         O  0.64294029  0.81037431  0.45075321    -0.86060
C40         C  0.85168685  0.88892345  0.48906779     0.86170
C41         C  0.75293617  0.94389547  0.46298240     1.07740
H42         H  0.75756997  0.84028597  0.44433714     0.39540
O43         O  0.72321054  0.85069731  0.44705420    -1.08720
O44         O  0.62155315  0.85915443  0.50697833    -0.65370
Ni45       Ni  0.70261266  0.85369647  0.51777073     1.26350
O46         O  0.81746337  0.88057939  0.45496450    -0.65600
O47         O  0.68923683  0.81650069  0.52493069    -0.77890
C48         C  0.72681274  0.86958596  0.61757522     0.85550
O49         O  0.68871686  0.85847515  0.59008798    -0.65070
Ni50       Ni  0.66769337  0.83614661  0.40169653     1.27450
Ni51       Ni  0.73972516  0.88748613  0.43754897     1.26060
H52         H  0.67865288  0.89951545  0.50557453     0.40090
O53         O  0.22648806  0.11957454  0.60114275    -0.79860
O54         O  0.23368284  0.11660299  0.36996911    -0.64550
O55         O  0.27942912  0.10798177  0.50974262    -1.11150
C56         C  0.32925932  0.19858876  0.49548380     1.07030
O57         O  0.31646152  0.13500533  0.35646338    -0.77760
O58         O  0.39149132  0.14860434  0.42861957    -0.65340
Ni59       Ni  0.23249705  0.08969212  0.55655086     1.34870
C60         C  0.40749714  0.13971316  0.47167958     0.85760
O61         O  0.24094178  0.07365180  0.43235649    -0.78300
O62         O  0.23578493  0.05901775  0.51401491    -0.88570
C63         C  0.26933047  0.12658123  0.33920387     0.85340
O64         O  0.15934650  0.09828680  0.53015199    -0.66770
O65         O  0.33279233  0.19365375  0.44769196    -0.86060
C66         C  0.14343377  0.11119406  0.49124782     0.86170
C67         C  0.23701888  0.05520284  0.46564757     1.07740
H68         H  0.23793751  0.15779848  0.45043403     0.39540
O69         O  0.27278629  0.14771158  0.45144679    -1.08720
O70         O  0.37453524  0.13759518  0.51002055    -0.65370
Ni71       Ni  0.29505557  0.14467175  0.52169852     1.26350
O72         O  0.17733230  0.11821537  0.45607439    -0.65600
O73         O  0.31289285  0.18177506  0.52904962    -0.77890
C74         C  0.26870912  0.13113067  0.62171071     0.85550
O75         O  0.30940074  0.13974135  0.59418997    -0.65070
Ni76       Ni  0.32283939  0.16372665  0.40394336     1.27450
Ni77       Ni  0.25548995  0.11109551  0.44037294     1.26060
H78         H  0.31504397  0.09847645  0.50943309     0.40090
O79         O  0.72512142  0.11847339  0.59913760    -0.79860
O80         O  0.73573198  0.11585345  0.36904729    -0.64550
O81         O  0.78024080  0.10766426  0.50881664    -1.11150
C82         C  0.82672898  0.19873602  0.49492005     1.07030
O83         O  0.81781295  0.13498289  0.35579365    -0.77760
O84         O  0.89171515  0.14919580  0.42903206    -0.65340
Ni85       Ni  0.73378944  0.08863297  0.55484478     1.34870
C86         C  0.90712555  0.14052930  0.47246018     0.85760
O87         O  0.74410675  0.07304114  0.43108209    -0.78300
O88         O  0.74009739  0.05792804  0.51242025    -0.88570
C89         C  0.77100973  0.12618404  0.33843255     0.85340
O90         O  0.66038735  0.09624331  0.52751706    -0.66770
O91         O  0.83121831  0.19375608  0.44721710    -0.86060
C92         C  0.64436058  0.10946755  0.48902685     0.86170
C93         C  0.74190577  0.05437778  0.46400190     1.07740
H94         H  0.73745225  0.15712000  0.44888456     0.39540
O95         O  0.77268779  0.14734246  0.45041432    -1.08720
O96         O  0.87367436  0.13819673  0.51037773    -0.65370
Ni97       Ni  0.79382487  0.14455758  0.52090418     1.26350
O98         O  0.67854869  0.11701928  0.45451591    -0.65600
O99         O  0.81011680  0.18186951  0.52833863    -0.77890
C100        C  0.76597373  0.13080755  0.62033881     0.85550
O101        O  0.80687667  0.13981915  0.59355207    -0.65070
Ni102      Ni  0.82281670  0.16374200  0.40342273     1.27450
Ni103      Ni  0.75703960  0.11056469  0.43936293     1.26060
H104        H  0.81634469  0.09856391  0.50878786     0.40090
O105        O  0.31541775  0.86404813  0.85338475    -0.79860
O106        O  0.31167895  0.85880194  0.09293396    -0.64550
O107        O  0.27371230  0.85155183  0.95003296    -1.11150
C108        C  0.23527789  0.94356671  0.96797085     1.07030
O109        O  0.22876601  0.87852050  0.10281287    -0.77760
O110        O  0.15944260  0.89820783  0.03238598    -0.65340
Ni111      Ni  0.32482609  0.83602827  0.90196116     1.34870
C112        C  0.14336035  0.88722325  0.99120672     0.85760
O113        O  0.31388496  0.81715872  0.02662653    -0.78300
O114        O  0.33824909  0.80656140  0.94584963    -0.88570
C115        C  0.27194704  0.86718576  0.12178962     0.85340
O116        O  0.39291692  0.85229622  0.92588335    -0.66770
O117        O  0.23218057  0.93919784  0.01605525    -0.86060
C118        C  0.40866420  0.86009900  0.96992091     0.86170
C119        C  0.33298720  0.80089405  0.99311356     1.07740
H120        H  0.31529439  0.90066324  0.01064642     0.39540
O121        O  0.27986859  0.89092987  0.01030349    -1.08720
O122        O  0.17703965  0.88151337  0.95485225    -0.65370
Ni123      Ni  0.25618999  0.88826528  0.94058246     1.26350
O124        O  0.37578517  0.86147651  0.00849224    -0.65600
O125        O  0.24205848  0.92560884  0.93396156    -0.77890
C126        C  0.26743756  0.87244598  0.83828007     0.85550
O127        O  0.23427337  0.88329559  0.87021162    -0.65070
Ni128      Ni  0.23201855  0.90834551  0.05809949     1.27450
Ni129      Ni  0.29621453  0.85424717  0.02047912     1.26060
H130        H  0.23890880  0.84139752  0.94856968     0.40090
O131        O  0.80659705  0.85832062  0.84462366    -0.79860
O132        O  0.80330023  0.85934236  0.09079373    -0.64550
O133        O  0.77223562  0.85110556  0.94641232    -1.11150
C134        C  0.74567378  0.94468474  0.96163946     1.07030
O135        O  0.72188161  0.87997181  0.08981722    -0.77760
O136        O  0.66091207  0.90633413  0.02081188    -0.65340
Ni137      Ni  0.82678080  0.83604370  0.90162714     1.34870
C138        C  0.64453717  0.89063539  0.98588906     0.85760
O139        O  0.80424785  0.81683324  0.02527793    -0.78300
O140        O  0.85041281  0.81039377  0.95122909    -0.88570
C141        C  0.76240071  0.87011477  0.11526722     0.85340
O142        O  0.88538877  0.85988338  0.92276034    -0.66770
O143        O  0.74742098  0.94157310  0.01013259    -0.86060
C144        C  0.90391805  0.86318939  0.96823402     0.86170
C145        C  0.83426098  0.80259559  0.99515282     1.07740
H146        H  0.81785278  0.89979475  0.00449817     0.39540
O147        O  0.78131515  0.89115041  0.00488538    -1.08720
O148        O  0.67875780  0.88050433  0.95404334    -0.65370
Ni149      Ni  0.75631479  0.88795937  0.93654345     1.26350
O150        O  0.87317486  0.85892211  0.00766239    -0.65600
O151        O  0.74240621  0.92563339  0.92918994    -0.77890
C152        C  0.76114209  0.87079559  0.83400352     0.85550
O153        O  0.73242191  0.88287552  0.86761572    -0.65070
Ni154      Ni  0.73513299  0.91074115  0.05022906     1.27450
Ni155      Ni  0.79191570  0.85417246  0.01750608     1.26060
H156        H  0.73738962  0.84070272  0.94337257     0.40090
O157        O  0.17900708  0.13280710  0.85444075    -0.79860
O158        O  0.19400771  0.14164537  0.09391181    -0.64550
O159        O  0.22231140  0.14695306  0.94900990    -1.11150
C160        C  0.24796530  0.05423365  0.96861122     1.07030
O161        O  0.27545593  0.12057700  0.09558284    -0.77760
O162        O  0.33476929  0.09392619  0.02695578    -0.65340
Ni163      Ni  0.16829049  0.16110084  0.90245957     1.34870
C164        C  0.35152224  0.10801770  0.99002939     0.85760
O165        O  0.18906269  0.18265657  0.02539254    -0.78300
O166        O  0.15412375  0.19065278  0.94648698    -0.88570
C167        C  0.23591342  0.13224706  0.11930052     0.85340
O168        O  0.10355853  0.14317304  0.92866792    -0.66770
O169        O  0.24800174  0.05844034  0.01690534    -0.86060
C170        C  0.08905380  0.13771444  0.97415986     0.86170
C171        C  0.16480822  0.19774782  0.99247681     1.07740
H172        H  0.17909750  0.09941843  0.00937267     0.39540
O173        O  0.21558787  0.10824989  0.00941240    -1.08720
O174        O  0.31779392  0.11737198  0.95661489    -0.65850
Ni175      Ni  0.23942012  0.11014993  0.94031117     1.26350
O176        O  0.12267097  0.13917809  0.01247374    -0.65600
O177        O  0.25297334  0.07239044  0.93469021    -0.77890
C178        C  0.22743252  0.12544166  0.83863790     0.85550
O179        O  0.26161679  0.11480013  0.87012146    -0.65070
Ni180      Ni  0.26121690  0.08958580  0.05621557     1.27450
Ni181      Ni  0.20361850  0.14526571  0.02017441     1.26060
H182        H  0.25677720  0.15722304  0.94563690     0.40090
O183        O  0.68011532  0.13545886  0.85485500    -0.79860
O184        O  0.69179517  0.13862727  0.09410587    -0.64550
O185        O  0.72215125  0.14787661  0.95078282    -1.11150
C186        C  0.75445781  0.05489455  0.96159387     1.07030
O187        O  0.77419491  0.11790956  0.09593621    -0.77760
O188        O  0.83608460  0.09369352  0.02444359    -0.65340
Ni189      Ni  0.66949611  0.16300751  0.90445274     1.34870
C190        C  0.85247663  0.10943014  0.98991383     0.85760
O191        O  0.68518831  0.18126588  0.02998817    -0.78300
O192        O  0.65583728  0.19195854  0.95008782    -0.88570
C193        C  0.73416328  0.12953816  0.11928977     0.85340
O194        O  0.60417693  0.14473041  0.92848312    -0.66770
O195        O  0.75189534  0.05766930  0.01015714    -0.86060
C196        C  0.58875372  0.13699834  0.97248500     0.86170
C197        C  0.66401398  0.19741107  0.99728461     1.07740
H198        H  0.68032263  0.09834676  0.00582024     0.39540
O199        O  0.71634335  0.10756309  0.00730408    -1.08720
O200        O  0.81851842  0.11960302  0.95761175    -0.65370
Ni201      Ni  0.74115758  0.11155036  0.93895550     1.26350
O202        O  0.62170080  0.13742286  0.01142610    -0.65600
O203        O  0.75733820  0.07416296  0.92985500    -0.77890
C204        C  0.72831275  0.12813839  0.83841816     0.85550
O205        O  0.76371334  0.11806049  0.86951528    -0.65070
Ni206      Ni  0.76222256  0.08797077  0.05268970     1.27450
Ni207      Ni  0.70211668  0.14419250  0.02124163     1.26060
H208        H  0.75628346  0.15851145  0.94923333     0.40090
O209        O  0.43072820  0.36416438  0.68875294    -0.79860
O210        O  0.44032858  0.35997643  0.45084575    -0.64550
O211        O  0.47409920  0.35171665  0.59377980    -1.11150
C212        C  0.50274450  0.44469003  0.58137351     1.07030
O213        O  0.52224026  0.38135106  0.44611553    -0.77760
O214        O  0.58573626  0.40494252  0.51787559    -0.65340
Ni215      Ni  0.42372751  0.33567520  0.64072566     1.34870
C216        C  0.60236959  0.39020797  0.55405538     0.85760
O217        O  0.43646350  0.31768864  0.51547714    -0.78300
O218        O  0.41344218  0.30599686  0.59630916    -0.88570
C219        C  0.48175454  0.36889861  0.42452008     0.85340
O220        O  0.35555429  0.35122845  0.61599333    -0.66770
O221        O  0.50213732  0.44151739  0.53282474    -0.86060
C222        C  0.33952821  0.35952637  0.57248165     0.86170
C223        C  0.41874320  0.30096736  0.54867079     1.07740
H224        H  0.43019645  0.40064253  0.53729785     0.39540
O225        O  0.46638261  0.39162767  0.53632163    -1.08720
O226        O  0.56885069  0.38118938  0.58777031    -0.65370
Ni227      Ni  0.49118045  0.38829260  0.60515867     1.26350
O228        O  0.37251760  0.36121173  0.53401641    -0.65600
O229        O  0.50550474  0.42577295  0.61378303    -0.77890
C230        C  0.47799768  0.37254225  0.70589503     0.85550
O231        O  0.51361709  0.38251341  0.67508950    -0.65070
Ni232      Ni  0.51155649  0.41113298  0.49026728     1.27450
Ni233      Ni  0.45271041  0.35489261  0.52347578     1.26060
H234        H  0.50893461  0.34162799  0.59506529     0.40090
O235        O  0.92771207  0.36399166  0.68875974    -0.79860
O236        O  0.94254397  0.36043772  0.44973664    -0.64550
O237        O  0.97184782  0.35168005  0.59380590    -1.11150
C238        C  0.00338341  0.44465797  0.58238660     1.07030
O239        O  0.02521572  0.38069452  0.45038299    -0.77760
O240        O  0.08670518  0.40504452  0.52153176    -0.65340
Ni241      Ni  0.91987336  0.33590019  0.63973394     1.34870
C242        C  0.10242628  0.38991248  0.55735287     0.85760
O243        O  0.93538413  0.31788253  0.51439104    -0.78300
O244        O  0.90914231  0.30652739  0.59463989    -0.88570
C245        C  0.98510753  0.36985792  0.42547987     0.85340
O246        O  0.85293595  0.35221213  0.61377124    -0.66770
O247        O  0.00315013  0.44161177  0.53379749    -0.86060
C248        C  0.83840878  0.36039981  0.56971034     0.86170
C249        C  0.91593455  0.30134874  0.54722294     1.07740
H250        H  0.93047059  0.40099459  0.53707951     0.39540
O251        O  0.96643538  0.39178072  0.53674469    -1.08720
O252        O  0.06763344  0.38062142  0.58970837    -0.65370
Ni253      Ni  0.98971156  0.38818246  0.60574374     1.26350
O254        O  0.87222137  0.36178561  0.53181028    -0.65600
O255        O  0.00492405  0.42562415  0.61468138    -0.77890
C256        C  0.97544942  0.37170778  0.70615951     0.85550
O257        O  0.01088629  0.38211329  0.67574531    -0.65070
Ni258      Ni  0.01345160  0.41102727  0.49212067     1.27450
Ni259      Ni  0.95243021  0.35506073  0.52296628     1.26060
H260        H  0.00636847  0.34138797  0.59578236     0.40090
O261        O  0.06801798  0.63666026  0.69154162    -0.79860
O262        O  0.05410712  0.63935084  0.45178183    -0.64550
O263        O  0.02397897  0.64796544  0.59559370    -1.11150
C264        C  0.99424822  0.55477229  0.58317243     1.07030
O265        O  0.97228108  0.61833457  0.45085675    -0.77760
O266        O  0.91097595  0.59422443  0.52134987    -0.65340
Ni267      Ni  0.07558796  0.66417669  0.64182070     1.34870
C268        C  0.89511849  0.60896203  0.55779153     0.85760
O269        O  0.05822130  0.68196367  0.51651462    -0.78300
O270        O  0.08700693  0.69312744  0.59627363    -0.88570
C271        C  0.01195513  0.62975027  0.42684630     0.85340
O272        O  0.14186608  0.64721096  0.61719236    -0.66770
O273        O  0.99439391  0.55777073  0.53462647    -0.86060
C274        C  0.15765411  0.63983964  0.57301936     0.86170
C275        C  0.07877518  0.69847443  0.54913894     1.07740
H276        H  0.06766228  0.59892706  0.53851009     0.39540
O277        O  0.03131497  0.60781799  0.53813666    -1.08720
O278        O  0.92985869  0.61814886  0.59061863    -0.65370
Ni279      Ni  0.00788302  0.61133933  0.60707877     1.26350
O280        O  0.12440159  0.63905865  0.53431225    -0.65600
O281        O  0.99408036  0.57383355  0.61564751    -0.77890
C282        C  0.02103612  0.62782630  0.70800229     0.85550
O283        O  0.98608512  0.61729049  0.67693484    -0.65070
Ni284      Ni  0.98446721  0.58826050  0.49292559     1.27450
Ni285      Ni  0.04360200  0.64466435  0.52485323     1.26060
H286        H  0.98906780  0.65796556  0.59747121     0.40090
O287        O  0.56689300  0.63556091  0.69372563    -0.79860
O288        O  0.55669104  0.63982808  0.45443076    -0.64550
O289        O  0.52413089  0.64771546  0.59770068    -1.11150
C290        C  0.49170108  0.55486923  0.58345301     1.07030
O291        O  0.47509885  0.61836988  0.44864528    -0.77760
O292        O  0.41108908  0.59585140  0.51959172    -0.65340
Ni293      Ni  0.57665663  0.66306199  0.64441933     1.34870
C294        C  0.39494676  0.60995090  0.55689803     0.85760
O295        O  0.55939577  0.68199529  0.51981029    -0.78300
O296        O  0.59097014  0.69191426  0.59924466    -0.88570
C297        C  0.51565327  0.63071172  0.42755846     0.85340
O298        O  0.64184018  0.64508358  0.62039125    -0.66770
O299        O  0.49173086  0.55813879  0.53498899    -0.86060
C300        C  0.65788044  0.63846906  0.57590201     0.86170
C301        C  0.58235466  0.69779559  0.55241808     1.07740
H302        H  0.56736958  0.59881555  0.53979029     0.39540
O303        O  0.53118558  0.60785038  0.53919664    -1.08720
O304        O  0.42915232  0.61820191  0.59116628    -0.65370
Ni305      Ni  0.50702977  0.61113725  0.60824780     1.26350
O306        O  0.62504379  0.63874007  0.53694491    -0.65600
O307        O  0.49261467  0.57372481  0.61627724    -0.77890
C308        C  0.51942954  0.62712418  0.70969412     0.85550
O309        O  0.48456915  0.61688485  0.67813594    -0.65070
Ni310      Ni  0.48472450  0.58864856  0.49271172     1.27450
Ni311      Ni  0.54441725  0.64469238  0.52710672     1.26060
H312        H  0.48956572  0.65795021  0.59972671     0.40090
O313        O  0.97322636  0.38012598  0.94589984    -0.79860
O314        O  0.98356828  0.38327729  0.17428373    -0.64550
O315        O  0.03002760  0.39164833  0.03548743    -1.11150
C316        C  0.08169987  0.30174959  0.05047530     1.07030
O317        O  0.06702603  0.36572328  0.18987009    -0.77760
O318        O  0.14247552  0.35466199  0.11665616    -0.65340
Ni319      Ni  0.98351164  0.41040572  0.98893767     1.34870
C320        C  0.15789057  0.36144484  0.07211379     0.85760
O321        O  0.99016356  0.42603900  0.11178482    -0.78300
O322        O  0.99207608  0.44129016  0.03046961    -0.88570
C323        C  0.01940975  0.37403907  0.20587598     0.85340
O324        O  0.90983979  0.40383295  0.01682306    -0.66770
O325        O  0.08966792  0.30807480  0.09727221    -0.86060
C326        C  0.89402441  0.38927785  0.05348222     0.86170
C327        C  0.99137533  0.44477029  0.07893164     1.07740
H328        H  0.98974874  0.34172480  0.09653466     0.39540
O329        O  0.02405090  0.35221109  0.09444292    -1.08720
O330        O  0.12460255  0.36152130  0.03345253    -0.65370
Ni331      Ni  0.04411364  0.35483831  0.02386829     1.26350
O332        O  0.92829063  0.38067044  0.08715331    -0.65600
O333        O  0.06021548  0.31755509  0.01725920    -0.77890
C334        C  0.01395385  0.36804848  0.92441410     0.85550
O335        O  0.05551053  0.35930558  0.95099261    -0.65070
Ni336      Ni  0.07644121  0.33750407  0.14154865     1.27450
Ni337      Ni  0.00577167  0.38866981  0.10439599     1.26060
H338        H  0.06604350  0.40089147  0.03612735     0.40090
O339        O  0.47360343  0.38134152  0.94815342    -0.79860
O340        O  0.48630612  0.38133620  0.17573321    -0.64550
O341        O  0.53143433  0.39118407  0.03721769    -1.11150
C342        C  0.57861690  0.30044646  0.04716895     1.07030
O343        O  0.56857262  0.36247984  0.18979664    -0.77760
O344        O  0.64327486  0.35078161  0.11523000    -0.65340
Ni345      Ni  0.48564378  0.41101576  0.99207969     1.34870
C346        C  0.65808427  0.35911358  0.07142380     0.85760
O347        O  0.49416692  0.42495041  0.11554277    -0.78300
O348        O  0.49607323  0.44123819  0.03497050    -0.88570
C349        C  0.52118289  0.37072418  0.20658472     0.85340
O350        O  0.41191021  0.40484662  0.02003473    -0.66770
O351        O  0.58556643  0.30533829  0.09472227    -0.86060
C352        C  0.39554576  0.38999574  0.05602879     0.86170
C353        C  0.49593436  0.44409648  0.08358458     1.07740
H354        H  0.48934133  0.34086752  0.09539749     0.39540
O355        O  0.52427962  0.35092462  0.09391158    -1.08720
O356        O  0.62439005  0.36067269  0.03326234    -0.65370
Ni357      Ni  0.54414676  0.35444017  0.02337492     1.26350
O358        O  0.42973580  0.38066808  0.08908603    -0.65600
O359        O  0.55983880  0.31721578  0.01445369    -0.77890
C360        C  0.51346631  0.36940998  0.92515521     0.85550
O361        O  0.55514457  0.35993474  0.95064088    -0.65070
Ni362      Ni  0.57564474  0.33463057  0.14015782     1.27450
Ni363      Ni  0.50789841  0.38749896  0.10605249     1.26060
H364        H  0.56775642  0.40015716  0.03810394     0.40090
O365        O  0.52205960  0.61716455  0.95057598    -0.79860
O366        O  0.51191619  0.61678418  0.17865306    -0.64550
O367        O  0.46547441  0.60686300  0.03983316    -1.11150
C368        C  0.41542513  0.69725264  0.05205189     1.07030
O369        O  0.42852708  0.63440004  0.19257780    -0.77760
O370        O  0.35270409  0.64545167  0.11850740    -0.65340
Ni371      Ni  0.51155229  0.58743436  0.99421223     1.34870
C372        C  0.33791582  0.63785563  0.07404515     0.85760
O373        O  0.50526603  0.57324460  0.11745840    -0.78300
O374        O  0.50329844  0.55707130  0.03660389    -0.88570
C375        C  0.47657978  0.62698846  0.20948925     0.85340
O376        O  0.58531023  0.59428102  0.02203443    -0.66770
O377        O  0.40719449  0.69157977  0.09902428    -0.86060
C378        C  0.60160250  0.60924375  0.05819506     0.86170
C379        C  0.50458357  0.55413991  0.08513902     1.07740
H380        H  0.50613320  0.65739423  0.09972886     0.39540
O381        O  0.47171707  0.64696633  0.09762513    -1.08720
O382        O  0.37149937  0.63709056  0.03595019    -0.65370
Ni383      Ni  0.45182135  0.64362316  0.02698549     1.26350
O384        O  0.56756882  0.61819015  0.09169018    -0.65600
O385        O  0.43603218  0.68089676  0.01930448    -0.77890
C386        C  0.48188422  0.62926293  0.92823584     0.85550
O387        O  0.44040462  0.63846833  0.95408770    -0.65070
Ni388      Ni  0.41939428  0.66236333  0.14390055     1.27450
Ni389      Ni  0.48981034  0.61055483  0.10879394     1.26060
H390        H  0.42936972  0.59770759  0.04053473     0.40090
O391        O  0.02358852  0.61945054  0.95015618    -0.79860
O392        O  0.01214598  0.61709886  0.17596578    -0.64550
O393        O  0.96500909  0.60849549  0.03724441    -1.11150
C394        C  0.91714960  0.69895144  0.05156952     1.07030
O395        O  0.92918591  0.63528629  0.19091625    -0.77760
O396        O  0.85403961  0.64674280  0.11701761    -0.65340
Ni397      Ni  0.01064457  0.58909672  0.99140298     1.34870
C398        C  0.83848928  0.63969698  0.07243255     0.85760
O399        O  0.00431967  0.57402456  0.11336617    -0.78300
O400        O  0.99940093  0.55839529  0.03214505    -0.88570
C401        C  0.97659255  0.62671395  0.20725789     0.85340
O402        O  0.08458115  0.59417077  0.02054045    -0.66770
O403        O  0.90875916  0.69292084  0.09832836    -0.86060
C404        C  0.10113904  0.60937630  0.05621151     0.86170
C405        C  0.00136681  0.55512541  0.08058800     1.07740
H406        H  0.00704599  0.65839124  0.09832166     0.39540
O407        O  0.97240223  0.64813757  0.09595143    -1.08720
O408        O  0.87171072  0.63931069  0.03394389    -0.65370
Ni409      Ni  0.95248976  0.64540271  0.02518258     1.26350
O410        O  0.06725414  0.61912147  0.08888312    -0.65600
O411        O  0.93771385  0.68281073  0.01839120    -0.77890
C412        C  0.98394385  0.63137626  0.92675813     0.85550
O413        O  0.94196711  0.64071282  0.95191649    -0.65070
Ni414      Ni  0.92067479  0.66346256  0.14261470     1.27450
Ni415      Ni  0.98963812  0.61156541  0.10604929     1.26060
H416        H  0.92863016  0.59957316  0.03774968     0.40090
C417        C  0.76206830  0.60979554  0.03770847     0.24630
C418        C  0.77818453  0.63228519  0.06586026    -0.23480
C419        C  0.73611904  0.64736830  0.09039188     0.19530
C420        C  0.67903466  0.63988466  0.08784037     0.24570
C421        C  0.66255514  0.61695888  0.06085959    -0.23430
C422        C  0.70477616  0.60209147  0.03537894     0.19470
F423        F  0.69099920  0.57972507  0.00922754    -0.13380
F424        F  0.80197012  0.59471573  0.01416903    -0.15750
F425        F  0.63985103  0.65550311  0.11105671    -0.15750
F426        F  0.75027496  0.66977799  0.11628435    -0.13380
C427        C  0.20466592  0.59872450  0.04334872     0.24630
C428        C  0.16209844  0.61649414  0.05938202    -0.23480
C429        C  0.17819931  0.64158859  0.07776069     0.19530
C430        C  0.23553714  0.64849490  0.08147137     0.24570
C431        C  0.27790859  0.63059106  0.06657969    -0.23430
C432        C  0.26225805  0.60579387  0.04681699     0.19470
F433        F  0.30271960  0.58810419  0.03281641    -0.13380
F434        F  0.19067666  0.57424686  0.02590743    -0.15750
F435        F  0.24982521  0.67295563  0.09886482    -0.15750
F436        F  0.13837290  0.65974153  0.09104647    -0.13380
C437        C  0.55239695  0.48441956  0.09967067     0.24630
C438        C  0.49970111  0.47136796  0.10232895    -0.23480
C439        C  0.44986940  0.48609682  0.10962090     0.19530
C440        C  0.45228858  0.51374289  0.11020534     0.24570
C441        C  0.50452343  0.52678858  0.10332718    -0.23430
C442        C  0.55478656  0.51200811  0.10006443     0.19470
F443        F  0.60537766  0.52428961  0.09198194    -0.13380
F444        F  0.60081724  0.47047112  0.09135189    -0.15750
F445        F  0.40310603  0.52775160  0.11179871    -0.15750
F446        F  0.39846563  0.47381750  0.11065488    -0.13380
C447        C  0.79016551  0.39797712  0.03685474     0.24630
C448        C  0.83334939  0.38163936  0.05689415    -0.23480
C449        C  0.81810175  0.35752028  0.07980863     0.19530
C450        C  0.76104962  0.35022684  0.08383703     0.24570
C451        C  0.71803209  0.36673613  0.06475869    -0.23430
C452        C  0.73291596  0.39050130  0.04061377     0.19470
F453        F  0.69196773  0.40690616  0.02238368    -0.13380
F454        F  0.80313733  0.42152176  0.01498280    -0.15750
F455        F  0.74779849  0.32663209  0.10540464    -0.15750
F456        F  0.85848923  0.34060043  0.09728132    -0.13380
C457        C  0.26008624  0.35367562  0.09088202     0.24630
C458        C  0.21823888  0.36862479  0.06565004    -0.23480
C459        C  0.23475284  0.39043773  0.03614117     0.19530
C460        C  0.29229413  0.39761557  0.03311156     0.24570
C461        C  0.33433128  0.38286235  0.05921749    -0.23430
C462        C  0.31735923  0.36061138  0.08763074     0.19470
F463        F  0.35619938  0.34507580  0.11161261    -0.13380
F464        F  0.24556130  0.33183366  0.11799929    -0.15750
F465        F  0.30651780  0.41932012  0.00551314    -0.15750
F466        F  0.19507509  0.40532812  0.01174923    -0.13380
C467        C  0.04957076  0.51275338  0.09873690     0.24630
C468        C  0.99935655  0.52767223  0.09807559    -0.23480
C469        C  0.94644981  0.51475976  0.10039113     0.19530
C470        C  0.94370051  0.48714112  0.09957497     0.24570
C471        C  0.99385035  0.47226053  0.09658318    -0.23430
C472        C  0.04682645  0.48515144  0.09807122     0.19470
F473        F  0.09567427  0.47104649  0.09368471    -0.13380
F474        F  0.10093159  0.52490083  0.09473140    -0.15750
F475        F  0.89219766  0.47500784  0.09664096    -0.15750
F476        F  0.89747404  0.52890955  0.09815519    -0.13380
C477        C  0.45756189  0.64109193  0.35119330     0.24630
C478        C  0.51111254  0.63470145  0.37168702    -0.23480
C479        C  0.55498677  0.62720004  0.33830718     0.19530
C480        C  0.54436680  0.62479270  0.28538096     0.24570
C481        C  0.48958745  0.62990646  0.26516434    -0.23430
C482        C  0.44683825  0.63876152  0.29886480     0.19470
F483        F  0.39360280  0.64446771  0.28177719    -0.13380
F484        F  0.41445610  0.64869311  0.38246945    -0.15750
F485        F  0.58735166  0.61694011  0.25429232    -0.15750
F486        F  0.60689849  0.62056068  0.35722143    -0.13380
C487        C  0.45160455  0.62646982  0.78515961     0.24630
C488        C  0.50733041  0.62868824  0.76552057    -0.23480
C489        C  0.55235957  0.63394902  0.79992744     0.19530
C490        C  0.54245928  0.63614761  0.85222084     0.24570
C491        C  0.48748160  0.63281724  0.87224710    -0.23430
C492        C  0.44177610  0.62854176  0.83824016     0.19470
F493        F  0.38830437  0.62503338  0.85648493    -0.13380
F494        F  0.40676466  0.62220136  0.75320195    -0.15750
F495        F  0.58755638  0.64085376  0.88376011    -0.15750
F496        F  0.60690082  0.63626758  0.78344726    -0.13380
C497        C  0.81623245  0.63432586  0.59961914     0.24630
C498        C  0.83396749  0.61610911  0.56200842    -0.23480
C499        C  0.79277388  0.60555847  0.52793934     0.19530
C500        C  0.73550521  0.61292100  0.53184617     0.24570
C501        C  0.71817872  0.63081878  0.56995952    -0.23430
C502        C  0.75931274  0.64156046  0.60343882     0.19470
F503        F  0.74480184  0.65973985  0.63948086    -0.13380
F504        F  0.85390668  0.64562791  0.63271114    -0.15750
F505        F  0.69692535  0.60208597  0.49902983    -0.15750
F506        F  0.80752394  0.58802313  0.49083605    -0.13380
C507        C  0.23550391  0.61388817  0.53016088     0.24630
C508        C  0.21812359  0.63235639  0.56722172    -0.23480
C509        C  0.25928833  0.64361542  0.60007136     0.19530
C510        C  0.31621968  0.63626561  0.59677627     0.24570
C511        C  0.33390747  0.61741519  0.56037056    -0.23430
C512        C  0.29274592  0.60641744  0.52680694     0.19470
F513        F  0.30744888  0.58819616  0.49095085    -0.13380
F514        F  0.19697094  0.60252566  0.49797728    -0.15750
F515        F  0.35398400  0.64807715  0.62910637    -0.15750
F516        F  0.24477150  0.66233349  0.63505428    -0.13380
C517        C  0.04336750  0.62988986  0.28346565     0.24630
C518        C  0.98785887  0.62732054  0.26315568    -0.23480
C519        C  0.94150765  0.62735961  0.29690441     0.19530
C520        C  0.94998240  0.62974565  0.34940317     0.24570
C521        C  0.00531444  0.63165205  0.37035379    -0.23430
C522        C  0.05203845  0.63208746  0.33678163     0.19470
F523        F  0.10589890  0.63381455  0.35548334    -0.13380
F524        F  0.08901828  0.63069268  0.25179635    -0.15750
F525        F  0.90323275  0.62992915  0.37988095    -0.15750
F526        F  0.88733263  0.62455299  0.27926222    -0.13380
C527        C  0.05524213  0.63248425  0.79811711     0.24630
C528        C  0.00940941  0.62930813  0.76380677    -0.23480
C529        C  0.95349070  0.62931217  0.78341651     0.19530
C530        C  0.94403176  0.63174252  0.83649761     0.24570
C531        C  0.99033889  0.63413024  0.87055271    -0.23430
C532        C  0.04582609  0.63506887  0.85042427     0.19470
F533        F  0.09178501  0.63794387  0.88175547    -0.13380
F534        F  0.10991930  0.63238674  0.78139309    -0.15750
F535        F  0.89004547  0.63058751  0.85463218    -0.15750
F536        F  0.90808134  0.62709735  0.75134105    -0.13380
C537        C  0.04661128  0.37110292  0.34811858     0.24630
C538        C  0.99146544  0.36861085  0.36884183    -0.23480
C539        C  0.94459709  0.36802739  0.33503294     0.19530
C540        C  0.95294418  0.37049024  0.28178517     0.24570
C541        C  0.00826499  0.37350015  0.26174406    -0.23430
C542        C  0.05473286  0.37377835  0.29572078     0.19470
F543        F  0.10872788  0.37706525  0.27838756    -0.13380
F544        F  0.09358285  0.37111895  0.37867874    -0.15750
F545        F  0.90719113  0.36943252  0.24990073    -0.15750
F546        F  0.89088432  0.36578027  0.35343407    -0.13380
C547        C  0.04278855  0.37424719  0.78233392     0.24630
C548        C  0.98816047  0.36886308  0.76187215    -0.23480
C549        C  0.94541510  0.35980445  0.79532380     0.19530
C550        C  0.95598569  0.35753901  0.84768834     0.24570
C551        C  0.00941086  0.36415569  0.86842324    -0.23430
C552        C  0.05327413  0.37187090  0.83524249     0.19470
F553        F  0.10505723  0.37874137  0.85435374    -0.13380
F554        F  0.08578807  0.38231628  0.75149342    -0.15750
F555        F  0.91290154  0.34971046  0.87874233    -0.15750
F556        F  0.89236235  0.35381114  0.77794119    -0.13380
C557        C  0.94698345  0.48489331  0.59756891     0.24630
C558        C  0.99972671  0.47199352  0.60066401    -0.23480
C559        C  0.04955640  0.48687680  0.60791440     0.19530
C560        C  0.04702714  0.51451967  0.60827903     0.24570
C561        C  0.99469016  0.52739829  0.60118593    -0.23430
C562        C  0.94448818  0.51246639  0.59771204     0.19470
F563        F  0.89381716  0.52458209  0.58923410    -0.13380
F564        F  0.89859492  0.47079711  0.58906308    -0.15750
F565        F  0.09614674  0.52867568  0.60993150    -0.15750
F566        F  0.10101119  0.47473924  0.60919903    -0.13380
C567        C  0.73568263  0.35066950  0.57963793     0.24630
C568        C  0.77848051  0.36787395  0.56262655    -0.23480
C569        C  0.76336676  0.39229815  0.54126269     0.19530
C570        C  0.70602234  0.39973081  0.53837484     0.24570
C571        C  0.66310417  0.38270892  0.55660171    -0.23430
C572        C  0.67859202  0.35794214  0.57654006     0.19470
F573        F  0.63836962  0.34042806  0.59200691    -0.13380
F574        F  0.74925124  0.32650874  0.59854008    -0.15750
F575        F  0.69268324  0.42387484  0.51932236    -0.15750
F576        F  0.80417602  0.40934955  0.52517002    -0.13380
C577        C  0.20538782  0.39566494  0.53204690     0.24630
C578        C  0.16346803  0.38241927  0.56101428    -0.23480
C579        C  0.18035958  0.36121985  0.59241830     0.19530
C580        C  0.23735138  0.35374639  0.59537663     0.24570
C581        C  0.27912627  0.36715225  0.56700938    -0.23430
C582        C  0.26256595  0.38801477  0.53491461     0.19470
F583        F  0.30190531  0.40154086  0.50743218    -0.13380
F584        F  0.19146238  0.41629540  0.50136413    -0.15750
F585        F  0.25145244  0.33283746  0.62531292    -0.15750
F586        F  0.14170585  0.34719540  0.61975800    -0.13380
C587        C  0.45360985  0.37389493  0.28193776     0.24630
C588        C  0.50829613  0.36837850  0.26225522    -0.23480
C589        C  0.55089931  0.35971122  0.29647876     0.19530
C590        C  0.54011443  0.35792628  0.34880424     0.24570
C591        C  0.48660246  0.36463329  0.36870630    -0.23430
C592        C  0.44290019  0.37198943  0.33479935     0.19470
F593        F  0.39104903  0.37894332  0.35311049    -0.13380
F594        F  0.41074431  0.38160136  0.25034949    -0.15750
F595        F  0.58304876  0.35046031  0.38061447    -0.15750
F596        F  0.60402142  0.35367235  0.27987743    -0.13380
C597        C  0.54496665  0.37181220  0.78235525     0.24630
C598        C  0.48925639  0.37104645  0.76188162    -0.23480
C599        C  0.44332168  0.36724026  0.79552763     0.19530
C600        C  0.45242904  0.36487486  0.84796716     0.24570
C601        C  0.50762271  0.36658148  0.86887266    -0.23430
C602        C  0.55406777  0.36954976  0.83554519     0.19470
F603        F  0.60778073  0.37147618  0.85452860    -0.13380
F604        F  0.59053533  0.37469646  0.75105334    -0.15750
F605        F  0.40646063  0.36142659  0.87867564    -0.15750
F606        F  0.38878930  0.36647576  0.77806847    -0.13380
C607        C  0.54595629  0.48701066  0.61118636     0.24630
C608        C  0.49731840  0.47200952  0.59946867    -0.23480
C609        C  0.44480353  0.48473974  0.59263919     0.19530
C610        C  0.44175666  0.51227616  0.59322646     0.24570
C611        C  0.49113772  0.52738446  0.60091966    -0.23430
C612        C  0.54284017  0.51466413  0.61202369     0.19470
F613        F  0.59131385  0.52900517  0.61802851    -0.13380
F614        F  0.59729292  0.47504409  0.61643106    -0.15750
F615        F  0.39175040  0.52423936  0.58135101    -0.15750
F616        F  0.39755408  0.47052044  0.58039789    -0.13380
C617        C  0.59950480  0.22662100  0.04724463     0.24630
C618        C  0.64541649  0.22387396  0.01345294    -0.23480
C619        C  0.66642774  0.24629225  0.98797960     0.19530
C620        C  0.64235579  0.27117652  0.99665382     0.24570
C621        C  0.59649085  0.27394485  0.03051169    -0.23430
C622        C  0.57542516  0.25150846  0.05592823     0.19470
F623        F  0.53130620  0.25377934  0.08908147    -0.13380
F624        F  0.57659282  0.20506758  0.07019940    -0.15750
F625        F  0.66547061  0.29273007  0.97385918    -0.15750
F626        F  0.71066694  0.24402648  0.95495332    -0.13380
C627        C  0.01360720  0.10462581  0.99513199     0.24630
C628        C  0.02927929  0.13052877  0.98241001    -0.23480
C629        C  0.98698629  0.14951054  0.97357821     0.19530
C630        C  0.92952528  0.14262477  0.97629200     0.24570
C631        C  0.91340313  0.11655412  0.98777622    -0.23430
C632        C  0.95593409  0.09765554  0.99790961     0.19470
F633        F  0.94169237  0.07225477  0.00853798    -0.13380
F634        F  0.05405107  0.08592115  0.00282786    -0.15750
F635        F  0.88960189  0.16158276  0.96864581    -0.15750
F636        F  0.00154909  0.17481610  0.96240142    -0.13380
C637        C  0.44433823  0.12110787  0.03009088     0.24630
C638        C  0.41281033  0.11397616  0.98620277    -0.23480
C639        C  0.44008094  0.11300601  0.93857650     0.19530
C640        C  0.49767391  0.11951493  0.93455192     0.24570
C641        C  0.52913191  0.12764333  0.97810178    -0.23430
C642        C  0.50187292  0.12802453  0.02610442     0.19470
F643        F  0.53005855  0.13609562  0.06893630    -0.13380
F644        F  0.41875830  0.12254198  0.07657893    -0.15750
F645        F  0.52258347  0.11772772  0.88780835    -0.15750
F646        F  0.41108562  0.10532954  0.89591104    -0.13380
C647        C  0.13919817  0.23160908  0.05925799     0.24630
C648        C  0.14563461  0.22468443  0.00747730    -0.23480
C649        C  0.12931393  0.24321639  0.96965264     0.19530
C650        C  0.10712227  0.26785703  0.98333147     0.24570
C651        C  0.10076123  0.27480435  0.03515820    -0.23430
C652        C  0.11694709  0.25620001  0.07294553     0.19470
F653        F  0.11102318  0.26153554  0.12368582    -0.13380
F654        F  0.15312552  0.21438706  0.09705458    -0.15750
F655        F  0.09298412  0.28503798  0.94553288    -0.15750
F656        F  0.13518563  0.23774136  0.91896276    -0.13380
C657        C  0.86060682  0.75612382  0.97280446     0.24630
C658        C  0.85358468  0.77594659  0.01046469    -0.23480
C659        C  0.86992823  0.77061414  0.06105598     0.19530
C660        C  0.89289590  0.74600806  0.07381404     0.24570
C661        C  0.89939388  0.72597868  0.03625377    -0.23430
C662        C  0.88320105  0.73145535  0.98552942     0.19470
F663        F  0.88728382  0.71269330  0.94841645    -0.13380
F664        F  0.84445193  0.76043829  0.92349888    -0.15750
F665        F  0.90929981  0.74195536  0.12312791    -0.15750
F666        F  0.86551319  0.78949905  0.09790231    -0.13380
C667        C  0.69811279  0.98683902  0.93936644     0.24630
C668        C  0.74835404  0.97207051  0.94356234    -0.23480
C669        C  0.80116887  0.98511976  0.94342249     0.19530
C670        C  0.80358267  0.01274359  0.94306638     0.24570
C671        C  0.75319714  0.02755638  0.94279273    -0.23430
C672        C  0.70053029  0.01447823  0.93896209     0.19470
F673        F  0.65132746  0.02847942  0.94040111    -0.13380
F674        F  0.64669397  0.97459199  0.94110548    -0.15750
F675        F  0.85470406  0.02501896  0.94845918    -0.15750
F676        F  0.85008725  0.97115345  0.94887451    -0.13380
C677        C  0.48282712  0.89335550  0.99153249     0.24630
C678        C  0.46856788  0.86769445  0.97626675    -0.23480
C679        C  0.51173281  0.84939808  0.96594571     0.19530
C680        C  0.56886700  0.85692094  0.96958219     0.24570
C681        C  0.58371967  0.88306379  0.98276859    -0.23430
C682        C  0.54009144  0.90126393  0.99402154     0.19470
F683        F  0.55282229  0.92667652  0.00643857    -0.13380
F684        F  0.44071435  0.91056211  0.00360920    -0.15750
F685        F  0.60971573  0.83841952  0.96166386    -0.15750
F686        F  0.49831963  0.82398689  0.95411403    -0.13380
C687        C  0.05308076  0.88828185  0.94050475     0.24630
C688        C  0.08226273  0.88120687  0.98541650    -0.23480
C689        C  0.05210547  0.86941722  0.02572591     0.19530
C690        C  0.99387647  0.86415606  0.02073826     0.24570
C691        C  0.96444230  0.87091507  0.97542641    -0.23430
C692        C  0.99469877  0.88335266  0.93561802     0.19470
F693        F  0.96774395  0.89101966  0.89202809    -0.13380
F694        F  0.08085331  0.90067636  0.90187236    -0.15750
F695        F  0.96697677  0.85152161  0.05958839    -0.15750
F696        F  0.07950949  0.86218360  0.06940090    -0.13380
C697        C  0.38048071  0.72915831  0.98529228     0.24630
C698        C  0.39763709  0.72414864  0.03593215    -0.23480
C699        C  0.39230965  0.74456507  0.07273436     0.19530
C700        C  0.36979589  0.76915752  0.05936225     0.24570
C701        C  0.35228217  0.77413400  0.00877879    -0.23430
C702        C  0.35798776  0.75377003  0.97188449     0.19470
F703        F  0.34092754  0.75742160  0.92262791    -0.13380
F704        F  0.38355158  0.70997885  0.94890762    -0.15750
F705        F  0.36668681  0.78828605  0.09585387    -0.15750
F706        F  0.40947218  0.74091073  0.12196862    -0.13380
C707        C  0.18601580  0.98651075  0.97046740     0.24630
C708        C  0.23169538  0.97136003  0.95250019    -0.23480
C709        C  0.27888278  0.98404948  0.93039478     0.19530
C710        C  0.28247610  0.01173861  0.93073689     0.24570
C711        C  0.23876156  0.02669962  0.95294896    -0.23430
C712        C  0.18946545  0.01396791  0.97056911     0.19470
F713        F  0.14661290  0.02815949  0.99194711    -0.13380
F714        F  0.14003168  0.97461977  0.99183389    -0.15750
F715        F  0.33083969  0.02371595  0.91447024    -0.15750
F716        F  0.32398041  0.96969038  0.91383863    -0.13380
C717        C  0.83327374  0.24736754  0.47997241     0.24630
C718        C  0.84554645  0.22534397  0.51102201    -0.23480
C719        C  0.88383253  0.22829712  0.55208230     0.19530
C720        C  0.90926744  0.25281058  0.56196743     0.24570
C721        C  0.89704535  0.27481343  0.53090131    -0.23430
C722        C  0.85873681  0.27189181  0.48987560     0.19470
F723        F  0.84396722  0.29303305  0.46085981    -0.13380
F724        F  0.79609636  0.24513751  0.44019544    -0.15750
F725        F  0.94634973  0.25507007  0.60181386    -0.15750
F726        F  0.89864296  0.20719125  0.58118422    -0.13380
C727        C  0.80526565  0.13157293  0.24866867     0.24630
C728        C  0.75955427  0.12774098  0.28249422    -0.23480
C729        C  0.70370751  0.12703941  0.26230195     0.19530
C730        C  0.69424206  0.12936222  0.20917832     0.24570
C731        C  0.74045563  0.13231234  0.17559314    -0.23430
C732        C  0.79581891  0.13397949  0.19625246     0.19470
F733        F  0.84161089  0.13744341  0.16534230    -0.13380
F734        F  0.85986591  0.13230880  0.26595526    -0.15750
F735        F  0.64037742  0.12753078  0.19051497    -0.15750
F736        F  0.65832814  0.12419866  0.29384551    -0.13380
C737        C  0.80613069  0.12819573  0.70983968     0.24630
C738        C  0.76171743  0.13503667  0.67622426    -0.23480
C739        C  0.70804899  0.14109903  0.69652808     0.19530
C740        C  0.69772854  0.13900889  0.74882148     0.24570
C741        C  0.74104439  0.13080130  0.78277550    -0.23430
C742        C  0.79592622  0.12607454  0.76279757     0.19470
F743        F  0.83942090  0.11890667  0.79416570    -0.13380
F744        F  0.85824056  0.12195790  0.69117077    -0.15750
F745        F  0.64429557  0.14428379  0.76561167    -0.15750
F746        F  0.66442226  0.14814261  0.66510575    -0.13380
C747        C  0.50952118  0.14430996  0.44686442     0.24630
C748        C  0.46781372  0.13187927  0.47696968    -0.23480
C749        C  0.48447469  0.11199294  0.51134749     0.19530
C750        C  0.54161854  0.10446267  0.51502924     0.24570
C751        C  0.58340490  0.11680527  0.48454600    -0.23430
C752        C  0.56646842  0.13690463  0.45057553     0.19470
F753        F  0.60508674  0.15000242  0.42152500    -0.13380
F754        F  0.49553252  0.16427206  0.41454931    -0.15750
F755        F  0.55566092  0.08481961  0.54802836    -0.15750
F756        F  0.44533065  0.09935295  0.54057991    -0.13380
C757        C  0.04027420  0.10376453  0.51180824     0.24630
C758        C  0.08278964  0.11864357  0.48701031    -0.23480
C759        C  0.06686168  0.14110219  0.45880490     0.19530
C760        C  0.00977378  0.14825868  0.45471493     0.24570
C761        C  0.96734665  0.13320366  0.47882253    -0.23430
C762        C  0.98305623  0.11106054  0.50786680     0.19470
F763        F  0.94289493  0.09596609  0.53100944    -0.13380
F764        F  0.05378590  0.08174677  0.53880499    -0.15750
F765        F  0.99607908  0.17038714  0.42811871    -0.15750
F766        F  0.10662758  0.15661728  0.43614789    -0.13380
C767        C  0.41162258  0.25242293  0.56341971     0.24630
C768        C  0.39986573  0.27446066  0.53231612    -0.23480
C769        C  0.36228850  0.27160334  0.49072380     0.19530
C770        C  0.33691333  0.24713470  0.48040840     0.24570
C771        C  0.34862340  0.22508962  0.51154255    -0.23430
C772        C  0.38628202  0.22794928  0.55309602     0.19470
F773        F  0.40050169  0.20680822  0.58233840    -0.13380
F774        F  0.44815929  0.25459347  0.60368975    -0.15750
F775        F  0.30026535  0.24500754  0.44021215    -0.15750
F776        F  0.34806402  0.29276321  0.46153300    -0.13380
C777        C  0.29693905  0.13281786  0.19732883     0.24630
C778        C  0.24178168  0.13406088  0.17598164    -0.23480
C779        C  0.19474011  0.13316196  0.20919332     0.19530
C780        C  0.20300917  0.13018482  0.26245373     0.24570
C781        C  0.25844262  0.12811311  0.28313939    -0.23430
C782        C  0.30507867  0.12963100  0.24972989     0.19470
F783        F  0.35928664  0.12744579  0.26752394    -0.13380
F784        F  0.34384677  0.13428372  0.16720290    -0.15750
F785        F  0.15698799  0.12964851  0.29370084    -0.15750
F786        F  0.14098985  0.13420068  0.19009651    -0.13380
C787        C  0.20369937  0.14207738  0.75054676     0.24630
C788        C  0.24229094  0.12910902  0.78353134    -0.23480
C789        C  0.29481157  0.12056098  0.76315594     0.19530
C790        C  0.30656257  0.12347212  0.71059751     0.24570
C791        C  0.26620573  0.13500851  0.67774597    -0.23430
C792        C  0.21553671  0.14486585  0.69855724     0.19470
F793        F  0.17582011  0.15616497  0.66768350    -0.13380
F794        F  0.15330298  0.15155617  0.76795990    -0.15750
F795        F  0.35542682  0.11333497  0.69124888    -0.15750
F796        F  0.33400560  0.10858607  0.79351080    -0.13380
C797        C  0.57211295  0.73885069  0.49938760     0.24630
C798        C  0.60171422  0.72436761  0.53655216    -0.23480
C799        C  0.64961032  0.73593579  0.56071394     0.19530
C800        C  0.66725619  0.76147652  0.54821685     0.24570
C801        C  0.63768219  0.77606466  0.51104777    -0.23430
C802        C  0.58961654  0.76446346  0.48693998     0.19470
F803        F  0.55867243  0.77803618  0.45175453    -0.13380
F804        F  0.52521533  0.72855911  0.47614211    -0.15750
F805        F  0.71435610  0.77154405  0.57150615    -0.15750
F806        F  0.68050632  0.72223298  0.59576608    -0.13380
C807        C  0.70623725  0.88610752  0.24786610     0.24630
C808        C  0.74641717  0.87434156  0.27993677    -0.23480
C809        C  0.79452340  0.86215600  0.25840721     0.19530
C810        C  0.80092746  0.86085599  0.20481860     0.24570
C811        C  0.75929825  0.87190019  0.17228790    -0.23430
C812        C  0.71258837  0.88517717  0.19495440     0.19470
F813        F  0.67165470  0.89697913  0.16618375    -0.13380
F814        F  0.65962367  0.89805590  0.26798895    -0.15750
F815        F  0.84677570  0.84823391  0.18500182    -0.15750
F816        F  0.83353189  0.85029630  0.28913830    -0.13380
C817        C  0.73943550  0.89433587  0.69906534     0.24630
C818        C  0.72384414  0.87068705  0.67390624    -0.23480
C819        C  0.71413541  0.84785561  0.70292225     0.19530
C820        C  0.72420658  0.84822789  0.75588755     0.24570
C821        C  0.74271720  0.87154593  0.78031043    -0.23430
C822        C  0.74833020  0.89479365  0.75199492     0.19470
F823        F  0.76602044  0.91747108  0.77507038    -0.13380
F824        F  0.74830053  0.91680606  0.67191380    -0.15750
F825        F  0.71790012  0.82562835  0.78318061    -0.15750
F826        F  0.69927351  0.82482823  0.67960547    -0.13380
C827        C  0.69276933  0.01164391  0.45025991     0.24630
C828        C  0.74259178  0.02679624  0.44659930    -0.23480
C829        C  0.79502461  0.01412532  0.43878258     0.19530
C830        C  0.79808648  0.98647835  0.43857960     0.24570
C831        C  0.74866354  0.97136629  0.44576031    -0.23430
C832        C  0.69576535  0.98407504  0.44963390     0.19470
F833        F  0.64774596  0.96976586  0.45793839    -0.13380
F834        F  0.64199246  0.02353946  0.45913873    -0.15750
F835        F  0.84972284  0.97454712  0.43653588    -0.15750
F836        F  0.84383157  0.02848178  0.43679876    -0.13380
C837        C  0.01170712  0.88541026  0.51413995     0.24630
C838        C  0.02927261  0.86772030  0.47566784    -0.23480
C839        C  0.98808918  0.85693219  0.44230280     0.19530
C840        C  0.93092823  0.86382338  0.44672956     0.24570
C841        C  0.91298982  0.88181530  0.48473527    -0.23430
C842        C  0.95425914  0.89246242  0.51857193     0.19470
F843        F  0.93942400  0.90987919  0.55585351    -0.13380
F844        F  0.05023547  0.89635671  0.54686707    -0.15750
F845        F  0.89320154  0.85239500  0.41385195    -0.15750
F846        F  0.00277575  0.83900682  0.40585451    -0.13380
C847        C  0.43585782  0.87738913  0.43740958     0.24630
C848        C  0.41436583  0.88525500  0.48539511    -0.23480
C849        C  0.45249066  0.88737063  0.52713153     0.19530
C850        C  0.51019721  0.88108227  0.52121872     0.24570
C851        C  0.53126885  0.87260354  0.47338757    -0.23430
C852        C  0.49323966  0.87116237  0.43149998     0.19470
F853        F  0.51086895  0.86295789  0.38458627    -0.13380
F854        F  0.40139423  0.87562160  0.39561457    -0.15750
F855        F  0.54519555  0.88316160  0.56258823    -0.15750
F856        F  0.43389632  0.89487129  0.57417363    -0.13380
C857        C  0.09551728  0.74637883  0.56786123     0.24630
C858        C  0.09714202  0.72511045  0.53275370    -0.23480
C859        C  0.12358398  0.72882419  0.48517991     0.19530
C860        C  0.14829349  0.75318811  0.47315180     0.24570
C861        C  0.14702398  0.77438370  0.50844515    -0.23430
C862        C  0.12031314  0.77069823  0.55589197     0.19470
F863        F  0.11625072  0.79091431  0.59001885    -0.13380
F864        F  0.06938563  0.74369727  0.61388688    -0.15750
F865        F  0.17437856  0.75591314  0.42712015    -0.15750
F866        F  0.12775370  0.70857098  0.45115441    -0.13380
C867        C  0.29628823  0.88045033  0.26247312     0.24630
C868        C  0.24743191  0.86845109  0.28358117    -0.23480
C869        C  0.21338387  0.85234255  0.25143492     0.19530
C870        C  0.22530351  0.84993890  0.19930227     0.24570
C871        C  0.27180567  0.86317335  0.17773844    -0.23430
C872        C  0.30820229  0.87787309  0.20987061     0.19470
F873        F  0.35269774  0.89136770  0.18966209    -0.13380
F874        F  0.33105564  0.89566837  0.29200400    -0.15750
F875        F  0.18929093  0.83574013  0.16901043    -0.15750
F876        F  0.16723942  0.83933610  0.26988115    -0.13380
C877        C  0.20993448  0.88588866  0.76035266     0.24630
C878        C  0.25160083  0.86969170  0.78320231    -0.23480
C879        C  0.27868671  0.85042997  0.75262376     0.19530
C880        C  0.26704429  0.84854089  0.70015579     0.24570
C881        C  0.22764727  0.86552272  0.67704578    -0.23430
C882        C  0.19838041  0.88390193  0.70759142     0.19470
F883        F  0.16137943  0.90110136  0.68568838    -0.13380
F884        F  0.18260543  0.90458836  0.78833323    -0.15750
F885        F  0.29630002  0.83085963  0.67127358    -0.15750
F886        F  0.31727962  0.83355171  0.77325695    -0.13380
C887        C  0.19203919  0.98470695  0.46643563     0.24630
C888        C  0.24239028  0.97214281  0.45103058    -0.23480
C889        C  0.28689966  0.98722294  0.43040987     0.19530
C890        C  0.28275772  0.01489707  0.42938150     0.24570
C891        C  0.23418732  0.02747524  0.44914778    -0.23430
C892        C  0.18799260  0.01215445  0.46556642     0.19470
F893        F  0.14091946  0.02393018  0.48515939    -0.13380
F894        F  0.14856960  0.97042026  0.48654361    -0.15750
F895        F  0.32839620  0.02942065  0.41454930    -0.15750
F896        F  0.33623465  0.97541843  0.41626408    -0.13380
loop_ 
_geom_bond_atom_site_label_1 
_geom_bond_atom_site_label_2 
_geom_bond_distance 
_geom_bond_site_symmetry_2 
_ccdc_geom_bond_type 
O1           Ni7   1.916       .  S
O1           C22   1.269       .  A
O2          Ni25   1.924       .  S
O2           C11   1.268       .  A
O3           Ni7   1.895       .  S
O3          Ni25   1.900       .  S
O3          Ni19   1.914       .  S
O3           H26   0.966       .  S
C4           O21   1.282       .  A
C4           O13   1.274       .  A
C4          C861   1.480       .  S
O5          Ni24   1.915       .  S
O5           C11   1.267       .  A
O6          Ni24   1.900       .  S
O6            C8   1.268       .  A
Ni7          O10   1.909       .  S
Ni7          O12   1.915       .  S
C8           O18   1.273       .  A
C8          C838   1.482       .  S
O9          Ni25   1.937       .  S
O9           C15   1.281       .  A
O10          C15   1.277       .  A
C11         C868   1.493       .  S
O12          C14   1.268       .  A
O13         Ni24   1.912       .  S
C14          O20   1.268       .  A
C14         C848   1.489       .  S
C15         C888   1.468       .  S
H16          O17   0.966       .  S
O17         Ni25   1.919       .  S
O17         Ni19   1.912       .  S
O17         Ni24   1.901       .  S
O18         Ni19   1.933       .  S
Ni19         O23   1.933       .  S
Ni19         O21   1.929       .  S
O20         Ni25   1.914       .  S
C22          O23   1.275       .  A
C22         C881   1.473       .  S
O27         Ni33   1.902       .  S
O27          C48   1.265       .  A
O28         Ni51   1.908       .  S
O28          C37   1.266       .  A
O29         Ni33   1.899       .  S
O29         Ni51   1.893       .  S
O29         Ni45   1.916       .  S
O29          H52   0.966       .  S
C30          O47   1.277       .  A
C30          O39   1.273       .  A
C30         C801   1.485       .  S
O31         Ni50   1.926       .  S
O31          C37   1.271       .  A
O32         Ni50   1.902       .  S
O32          C34   1.270       .  A
Ni33         O36   1.905       .  S
Ni33         O38   1.912       .  S
C34          O44   1.277       .  A
C34         C851   1.490       .  S
O35         Ni51   1.939       .  S
O35          C41   1.281       .  A
O36          C41   1.275       .  A
C37         C808   1.469       .  S
O38          C40   1.266       .  A
O39         Ni50   1.922       .  S
C40          O46   1.268       .  A
C40         C841   1.490       .  S
C41         C831   1.466       .  S
H42          O43   0.968       .  S
O43         Ni51   1.919       .  S
O43         Ni45   1.915       .  S
O43         Ni50   1.903       .  S
O44         Ni45   1.945       .  S
Ni45         O49   1.931       .  S
Ni45         O47   1.918       .  S
O46         Ni51   1.914       .  S
C48          O49   1.274       .  A
C48         C818   1.473       .  S
O53         Ni59   1.911       .  S
O53          C74   1.267       .  A
O54         Ni77   1.927       .  S
O54          C63   1.268       .  A
O55         Ni59   1.892       .  S
O55         Ni77   1.900       .  S
O55         Ni71   1.917       .  S
O55          H78   0.966       .  S
C56          O73   1.283       .  A
C56          O65   1.274       .  A
C56         C771   1.475       .  S
O57         Ni76   1.912       .  S
O57          C63   1.266       .  A
O58         Ni76   1.898       .  S
O58          C60   1.268       .  A
Ni59         O62   1.908       .  S
Ni59         O64   1.901       .  S
C60          O70   1.273       .  A
C60         C748   1.479       .  S
O61         Ni77   1.936       .  S
O61          C67   1.281       .  A
O62          C67   1.277       .  A
C63         C781   1.486       .  S
O64          C66   1.265       .  A
O65         Ni76   1.907       .  S
C66          O72   1.269       .  A
C66         C758   1.479       .  S
C67         C891   1.468       .  S
H68          O69   0.966       .  S
O69         Ni77   1.918       .  S
O69         Ni71   1.911       .  S
O69         Ni76   1.895       .  S
O70         Ni71   1.928       .  S
Ni71         O75   1.937       .  S
Ni71         O73   1.932       .  S
O72         Ni77   1.918       .  S
C74          O75   1.275       .  A
C74         C791   1.476       .  S
O79         Ni85   1.911       .  S
O79         C100   1.268       .  A
O80        Ni103   1.920       .  S
O80          C89   1.267       .  A
O81         Ni85   1.891       .  S
O81        Ni103   1.897       .  S
O81         Ni97   1.919       .  S
O81         H104   0.966       .  S
C82          O99   1.284       .  A
C82          O91   1.274       .  A
C82         C718   1.476       .  S
O83        Ni102   1.914       .  S
O83          C89   1.267       .  A
O84        Ni102   1.900       .  S
O84          C86   1.268       .  A
Ni85         O88   1.912       .  S
Ni85         O90   1.904       .  S
C86          O96   1.272       .  A
C86         C761   1.473       .  S
O87        Ni103   1.934       .  S
O87          C93   1.280       .  A
O88          C93   1.276       .  A
C89         C728   1.486       .  S
O90          C92   1.265       .  A
O91        Ni102   1.907       .  S
C92          O98   1.269       .  A
C92         C751   1.485       .  S
C93         C828   1.467       .  S
H94          O95   0.966       .  S
O95        Ni103   1.918       .  S
O95         Ni97   1.909       .  S
O95        Ni102   1.896       .  S
O96         Ni97   1.925       .  S
Ni97        O101   1.935       .  S
Ni97         O99   1.935       .  S
O98        Ni103   1.917       .  S
C100        O101   1.275       .  A
C100        C738   1.477       .  S
O105       Ni111   1.918       .  S
O105        C126   1.268       .  A
O106       Ni129   1.937       .  S
O106        C115   1.274       .  A
O107       Ni111   1.909       .  S
O107       Ni129   1.915   1_556  S
O107       Ni123   1.921       .  S
O107        H130   0.966       .  S
C108        O125   1.279       .  A
C108        O117   1.277   1_556  A
C108        C708   1.468       .  S
O109       Ni128   1.913       .  S
O109        C115   1.267       .  A
O110       Ni128   1.899       .  S
O110        C112   1.264   1_554  A
Ni111       O114   1.910       .  S
Ni111       O116   1.900       .  S
C112        O122   1.271       .  A
C112        C688   1.474       .  S
O113       Ni129   1.931       .  S
O113        C119   1.282   1_554  A
O114        C119   1.274       .  A
C115        C871   1.475       .  S
O116        C118   1.267       .  A
O117       Ni128   1.912       .  S
C118        O124   1.273   1_556  A
C118        C678   1.467       .  S
C119        C701   1.487   1_556  S
H120        O121   0.967       .  S
O121       Ni129   1.916       .  S
O121       Ni123   1.905   1_554  S
O121       Ni128   1.899       .  S
O122       Ni123   1.929       .  S
Ni123       O127   1.921       .  S
Ni123       O125   1.928       .  S
O124       Ni129   1.932       .  S
C126        O127   1.268       .  A
C126        C878   1.489       .  S
O131       Ni137   1.928       .  S
O131        C152   1.272       .  A
O132       Ni155   1.947       .  S
O132        C141   1.278       .  A
O133       Ni137   1.898       .  S
O133       Ni155   1.916   1_556  S
O133       Ni149   1.922       .  S
O133        H156   0.975       .  S
C134        O151   1.283       .  A
C134        O143   1.276   1_556  A
C134        C668   1.467       .  S
O135       Ni154   1.898       .  S
O135        C141   1.263       .  A
O136       Ni154   1.915       .  S
O136        C138   1.265   1_554  A
Ni137       O140   1.918       .  S
Ni137       O142   1.908       .  S
C138        O148   1.267       .  A
C138        C681   1.481       .  S
O139       Ni155   1.924       .  S
O139        C145   1.280   1_554  A
O140        C145   1.273       .  A
C141        C811   1.492       .  S
O142        C144   1.273       .  A
O143       Ni154   1.904       .  S
C144        O150   1.278   1_556  A
C144        C691   1.485       .  S
C145        C658   1.480   1_556  S
H146        O147   0.963       .  S
O147       Ni155   1.918       .  S
O147       Ni149   1.882   1_554  S
O147       Ni154   1.889       .  S
O148       Ni149   1.918       .  S
Ni149       O153   1.898       .  S
Ni149       O151   1.946       .  S
O150       Ni155   1.942       .  S
C152        O153   1.266       .  A
C152        C821   1.465       .  S
O157       Ni163   1.918       .  S
O157        C178   1.268       .  A
O158       Ni181   1.948       .  S
O158        C167   1.278       .  A
O159       Ni163   1.896       .  S
O159       Ni181   1.912   1_556  S
O159       Ni175   1.920       .  S
O159        H182   0.966       .  S
C160        O177   1.284       .  A
C160        O169   1.277   1_556  A
C160        C711   1.467       .  S
O161       Ni180   1.901       .  S
O161        C167   1.265       .  A
O162       Ni180   1.905       .  S
O162        C164   1.265   1_554  A
Ni163       O166   1.914       .  S
Ni163       O168   1.901       .  S
C164        O174   1.269       .  A
C164        C638   1.475       .  S
O165       Ni181   1.929       .  S
O165        C171   1.284   1_554  A
O166        C171   1.275       .  A
C167        C778   1.487       .  S
O168        C170   1.268       .  A
O169       Ni180   1.902       .  S
C170        O176   1.273   1_556  A
C170        C628   1.467       .  S
C171        C648   1.489   1_556  S
H172        O173   0.966       .  S
O173       Ni181   1.915       .  S
O173       Ni175   1.893   1_554  S
O173       Ni180   1.880       .  S
O174       Ni175   1.923       .  S
Ni175       O179   1.922       .  S
Ni175       O177   1.944       .  S
O176       Ni181   1.936       .  S
C178        O179   1.269       .  A
C178        C788   1.493       .  S
O183       Ni189   1.917       .  S
O183        C204   1.268       .  A
O184       Ni207   1.939       .  S
O184        C193   1.278       .  A
O185       Ni189   1.891       .  S
O185       Ni207   1.909   1_556  S
O185       Ni201   1.918       .  S
O185        H208   0.966       .  S
C186        O203   1.284       .  A
C186        O195   1.276   1_556  A
C186        C671   1.467       .  S
O187       Ni206   1.906       .  S
O187        C193   1.268       .  A
O188       Ni206   1.911       .  S
O188        C190   1.266   1_554  A
Ni189       O192   1.914       .  S
Ni189       O194   1.900       .  S
C190        O200   1.269       .  A
C190        C631   1.477       .  S
O191       Ni207   1.932       .  S
O191        C197   1.283   1_554  A
O192        C197   1.275       .  A
C193        C731   1.482       .  S
O194        C196   1.268       .  A
O195       Ni206   1.905       .  S
C196        O202   1.275   1_556  A
C196        C641   1.486       .  S
C197        C618   1.471   1_556  S
H198        O199   0.966       .  S
O199       Ni207   1.919       .  S
O199       Ni201   1.890   1_554  S
O199       Ni206   1.884       .  S
O200       Ni201   1.923       .  S
Ni201       O205   1.919       .  S
Ni201       O203   1.945       .  S
O202       Ni207   1.936       .  S
C204        O205   1.269       .  A
C204        C741   1.490       .  S
O209       Ni215   1.914       .  S
O209        C230   1.267       .  A
O210       Ni233   1.934       .  S
O210        C219   1.277       .  A
O211       Ni215   1.891       .  S
O211       Ni233   1.907       .  S
O211       Ni227   1.916       .  S
O211        H234   0.966       .  S
C212        O229   1.281       .  A
C212        O221   1.276       .  A
C212        C608   1.466       .  S
O213       Ni232   1.912       .  S
O213        C219   1.269       .  A
O214       Ni232   1.910       .  S
O214        C216   1.266       .  A
Ni215       O218   1.909       .  S
Ni215       O220   1.898       .  S
C216        O226   1.269       .  A
C216        C571   1.479       .  S
O217       Ni233   1.931       .  S
O217        C223   1.283       .  A
O218        C223   1.275       .  A
C219        C591   1.477       .  S
O220        C222   1.268       .  A
O221       Ni232   1.908       .  S
C222        O228   1.274       .  A
C222        C581   1.478       .  S
C223        C768   1.474       .  S
H224        O225   0.966       .  S
O225       Ni233   1.915       .  S
O225       Ni227   1.894       .  S
O225       Ni232   1.887       .  S
O226       Ni227   1.917       .  S
Ni227       O231   1.921       .  S
Ni227       O229   1.939       .  S
O228       Ni233   1.933       .  S
C230        O231   1.268       .  A
C230        C598   1.486       .  S
O235       Ni241   1.918       .  S
O235        C256   1.269       .  A
O236       Ni259   1.944       .  S
O236        C245   1.278       .  A
O237       Ni241   1.892       .  S
O237       Ni259   1.910       .  S
O237       Ni253   1.918       .  S
O237        H260   0.966   1_655  S
C238        O255   1.283       .  A
C238        O247   1.277       .  A
C238        C558   1.465   1_455  S
O239       Ni258   1.901       .  S
O239        C245   1.266   1_455  A
O240       Ni258   1.907       .  S
O240        C242   1.265       .  A
Ni241       O244   1.909       .  S
Ni241       O246   1.901       .  S
C242        O252   1.269       .  A
C242        C578   1.487       .  S
O243       Ni259   1.935       .  S
O243        C249   1.285       .  A
O244        C249   1.275       .  A
C245        C538   1.487       .  S
O246        C248   1.269       .  A
O247       Ni258   1.905       .  S
C248        O254   1.273       .  A
C248        C568   1.470       .  S
C249        C721   1.475       .  S
H250        O251   0.966       .  S
O251       Ni259   1.920       .  S
O251       Ni253   1.889       .  S
O251       Ni258   1.882   1_655  S
O252       Ni253   1.919   1_455  S
Ni253       O257   1.917   1_655  S
Ni253       O255   1.941   1_655  S
O254       Ni259   1.931       .  S
C256        O257   1.268   1_655  A
C256        C548   1.490       .  S
O261       Ni267   1.915       .  S
O261        C282   1.268       .  A
O262       Ni285   1.942       .  S
O262        C271   1.277       .  A
O263       Ni267   1.891       .  S
O263       Ni285   1.911       .  S
O263       Ni279   1.916       .  S
O263        H286   0.966   1_455  S
C264        O281   1.282       .  A
C264        O273   1.276       .  A
C264        C561   1.465       .  S
O265       Ni284   1.901       .  S
O265        C271   1.265   1_655  A
O266       Ni284   1.907       .  S
O266        C268   1.265       .  A
Ni267       O270   1.909       .  S
Ni267       O272   1.894       .  S
C268        O278   1.267       .  A
C268        C498   1.487       .  S
O269       Ni285   1.932       .  S
O269        C275   1.283       .  A
O270        C275   1.274       .  A
C271        C521   1.485       .  S
O272        C274   1.268       .  A
O273       Ni284   1.906       .  S
C274        O280   1.275       .  A
C274        C508   1.480       .  S
C275        C858   1.480       .  S
H276        O277   0.966       .  S
O277       Ni285   1.920       .  S
O277       Ni279   1.892       .  S
O277       Ni284   1.887   1_455  S
O278       Ni279   1.914   1_655  S
Ni279       O283   1.919   1_455  S
Ni279       O281   1.939   1_455  S
O280       Ni285   1.935       .  S
C282        O283   1.267   1_455  A
C282        C528   1.484       .  S
O287       Ni293   1.913       .  S
O287        C308   1.266       .  A
O288       Ni311   1.934       .  S
O288        C297   1.275       .  A
O289       Ni293   1.895       .  S
O289       Ni311   1.910       .  S
O289       Ni305   1.915       .  S
O289        H312   0.966       .  S
C290        O307   1.280       .  A
C290        O299   1.276       .  A
C290        C611   1.466       .  S
O291       Ni310   1.910       .  S
O291        C297   1.267       .  A
O292       Ni310   1.905       .  S
O292        C294   1.265       .  A
Ni293       O296   1.910       .  S
Ni293       O298   1.891       .  S
C294        O304   1.269       .  A
C294        C511   1.487       .  S
O295       Ni311   1.930       .  S
O295        C301   1.282       .  A
O296        C301   1.274       .  A
C297        C478   1.476       .  S
O298        C300   1.266       .  A
O299       Ni310   1.908       .  S
C300        O306   1.274       .  A
C300        C501   1.478       .  S
C301        C798   1.480       .  S
H302        O303   0.966       .  S
O303       Ni311   1.918       .  S
O303       Ni305   1.898       .  S
O303       Ni310   1.893       .  S
O304       Ni305   1.916       .  S
Ni305       O309   1.922       .  S
Ni305       O307   1.936       .  S
O306       Ni311   1.935       .  S
C308        O309   1.268       .  A
C308        C488   1.487       .  S
O313       Ni319   1.911       .  S
O313        C334   1.268   1_655  A
O314       Ni337   1.919   1_655  S
O314        C323   1.267   1_655  A
O315       Ni319   1.890   1_454  S
O315       Ni337   1.895       .  S
O315       Ni331   1.917       .  S
O315        H338   0.966       .  S
C316        O333   1.284       .  A
C316        O325   1.274       .  A
C316        C651   1.490       .  S
O317       Ni336   1.916       .  S
O317        C323   1.268       .  A
O318       Ni336   1.895       .  S
O318        C320   1.267       .  A
Ni319       O322   1.909   1_556  S
Ni319       O324   1.910   1_556  S
C320        O330   1.274       .  A
C320        C458   1.474       .  S
O321       Ni337   1.937   1_655  S
O321        C327   1.281       .  A
O322        C327   1.276       .  A
C323        C541   1.483       .  S
O324        C326   1.266       .  A
O325       Ni336   1.909       .  S
C326        O332   1.268       .  A
C326        C448   1.480       .  S
C327        C471   1.465       .  S
H328        O329   0.966   1_655  S
O329       Ni337   1.913       .  S
O329       Ni331   1.908       .  S
O329       Ni336   1.892       .  S
O330       Ni331   1.936       .  S
Ni331       O335   1.935   1_554  S
Ni331       O333   1.933       .  S
O332       Ni337   1.916   1_655  S
C334        O335   1.276       .  A
C334        C551   1.477       .  S
O339       Ni345   1.906       .  S
O339        C360   1.268       .  A
O340       Ni363   1.916       .  S
O340        C349   1.268       .  A
O341       Ni345   1.885   1_554  S
O341       Ni363   1.891       .  S
O341       Ni357   1.918       .  S
O341        H364   0.966       .  S
C342        O359   1.284       .  A
C342        O351   1.274       .  A
C342        C621   1.471       .  S
O343       Ni362   1.919       .  S
O343        C349   1.269       .  A
O344       Ni362   1.904       .  S
O344        C346   1.270       .  A
Ni345       O348   1.907   1_556  S
Ni345       O350   1.908   1_556  S
C346        O356   1.272       .  A
C346        C451   1.471       .  S
O347       Ni363   1.939       .  S
O347        C353   1.282       .  A
O348        C353   1.276       .  A
C349        C588   1.490       .  S
O350        C352   1.266       .  A
O351       Ni362   1.911       .  S
C352        O358   1.269       .  A
C352        C461   1.485       .  S
C353        C438   1.465       .  S
H354        O355   0.966       .  S
O355       Ni363   1.917       .  S
O355       Ni357   1.910       .  S
O355       Ni362   1.895       .  S
O356       Ni357   1.927       .  S
Ni357       O361   1.937   1_554  S
Ni357       O359   1.934       .  S
O358       Ni363   1.918       .  S
C360        O361   1.277       .  A
C360        C601   1.481       .  S
O365       Ni371   1.907       .  S
O365        C386   1.267       .  A
O366       Ni389   1.918       .  S
O366        C375   1.268       .  A
O367       Ni371   1.888   1_554  S
O367       Ni389   1.894       .  S
O367       Ni383   1.919       .  S
O367        H390   0.966       .  S
C368        O385   1.285       .  A
C368        O377   1.275       .  A
C368        C698   1.487       .  S
O369       Ni388   1.917       .  S
O369        C375   1.269       .  A
O370       Ni388   1.900       .  S
O370        C372   1.268       .  A
Ni371       O374   1.907   1_556  S
Ni371       O376   1.907   1_556  S
C372        O382   1.272       .  A
C372        C431   1.469       .  S
O373       Ni389   1.938       .  S
O373        C379   1.281       .  A
O374        C379   1.276       .  A
C375        C481   1.490       .  S
O376        C378   1.266       .  A
O377       Ni388   1.911       .  S
C378        O384   1.270       .  A
C378        C421   1.485       .  S
C379        C441   1.465       .  S
H380        O381   0.966       .  S
O381       Ni389   1.916       .  S
O381       Ni383   1.907       .  S
O381       Ni388   1.894       .  S
O382       Ni383   1.931       .  S
Ni383       O387   1.937   1_554  S
Ni383       O385   1.935       .  S
O384       Ni389   1.922       .  S
C386        O387   1.276       .  A
C386        C491   1.479       .  S
O391       Ni397   1.904       .  S
O391        C412   1.267   1_455  A
O392       Ni415   1.917   1_455  S
O392        C401   1.267   1_455  A
O393       Ni397   1.885   1_654  S
O393       Ni415   1.890       .  S
O393       Ni409   1.919       .  S
O393        H416   0.966       .  S
C394        O411   1.285       .  A
C394        O403   1.275       .  A
C394        C661   1.487       .  S
O395       Ni414   1.917       .  S
O395        C401   1.269       .  A
O396       Ni414   1.896       .  S
O396        C398   1.268       .  A
Ni397       O400   1.905   1_456  S
Ni397       O402   1.910   1_556  S
C398        O408   1.275       .  A
C398        C418   1.474       .  S
O399       Ni415   1.942   1_455  S
O399        C405   1.283       .  A
O400        C405   1.276   1_655  A
C401        C518   1.482       .  S
O402        C404   1.265       .  A
O403       Ni414   1.910       .  S
C404        O410   1.268       .  A
C404        C428   1.478       .  S
C405        C468   1.465   1_455  S
H406        O407   0.966   1_455  S
O407       Ni415   1.915       .  S
O407       Ni409   1.908       .  S
O407       Ni414   1.890       .  S
O408       Ni409   1.937       .  S
Ni409       O413   1.940   1_554  S
Ni409       O411   1.935       .  S
O410       Ni415   1.918   1_455  S
C412        O413   1.278       .  A
C412        C531   1.482       .  S
C417        C418   1.403       .  A
C417        C422   1.402       .  A
C417        F424   1.358       .  S
C418        C419   1.405       .  A
C419        C420   1.394       .  A
C419        F426   1.358       .  S
C420        C421   1.408       .  A
C420        F425   1.358       .  S
C421        C422   1.414       .  A
C422        F423   1.358       .  S
C427        C428   1.411       .  A
C427        C432   1.402       .  A
C427        F434   1.358       .  S
C428        C429   1.407       .  A
C429        C430   1.394       .  A
C429        F436   1.358       .  S
C430        C431   1.403       .  A
C430        F435   1.358       .  S
C431        C432   1.403       .  A
C432        F433   1.358       .  S
C437        C438   1.404       .  A
C437        C442   1.398       .  A
C437        F444   1.358       .  S
C438        C439   1.403       .  A
C439        C440   1.401       .  A
C439        F446   1.358       .  S
C440        C441   1.405       .  A
C440        F445   1.358       .  S
C441        C442   1.402       .  A
C442        F443   1.358       .  S
C447        C448   1.410       .  A
C447        C452   1.401       .  A
C447        F454   1.358       .  S
C448        C449   1.408       .  A
C449        C450   1.394       .  A
C449        F456   1.358       .  S
C450        C451   1.404       .  A
C450        F455   1.358       .  S
C451        C452   1.404       .  A
C452        F453   1.358       .  S
C457        C458   1.405       .  A
C457        C462   1.393       .  A
C457        F464   1.359       .  S
C458        C459   1.403       .  A
C459        C460   1.402       .  A
C459        F466   1.358       .  S
C460        C461   1.414       .  A
C460        F465   1.358       .  S
C461        C462   1.409       .  A
C462        F463   1.358       .  S
C467        C468   1.402   1_455  A
C467        C472   1.399       .  A
C467        F474   1.358       .  S
C468        C469   1.405       .  A
C469        C470   1.400       .  A
C469        F476   1.358       .  S
C470        C471   1.402       .  A
C470        F475   1.358       .  S
C471        C472   1.405   1_655  A
C472        F473   1.358       .  S
C477        C478   1.404       .  A
C477        C482   1.392       .  A
C477        F484   1.359       .  S
C478        C479   1.405       .  A
C479        C480   1.407       .  A
C479        F486   1.357       .  S
C480        C481   1.414       .  A
C480        F485   1.358       .  S
C481        C482   1.411       .  A
C482        F483   1.358       .  S
C487        C488   1.413       .  A
C487        C492   1.409       .  A
C487        F494   1.357       .  S
C488        C489   1.409       .  A
C489        C490   1.389       .  A
C489        F496   1.359       .  S
C490        C491   1.406       .  A
C490        F495   1.359       .  S
C491        C492   1.406       .  A
C492        F493   1.357       .  S
C497        C498   1.409       .  A
C497        C502   1.391       .  A
C497        F504   1.358       .  S
C498        C499   1.414       .  A
C499        C500   1.401       .  A
C499        F506   1.358       .  S
C500        C501   1.405       .  A
C500        F505   1.358       .  S
C501        C502   1.407       .  A
C502        F503   1.359       .  S
C507        C508   1.405       .  A
C507        C512   1.401       .  A
C507        F514   1.358       .  S
C508        C509   1.408       .  A
C509        C510   1.392       .  A
C509        F516   1.359       .  S
C510        C511   1.409       .  A
C510        F515   1.358       .  S
C511        C512   1.414       .  A
C512        F513   1.358       .  S
C517        C518   1.411   1_455  A
C517        C522   1.409       .  A
C517        F524   1.358       .  S
C518        C519   1.404       .  A
C519        C520   1.388       .  A
C519        F526   1.359       .  S
C520        C521   1.411   1_655  A
C520        F525   1.359       .  S
C521        C522   1.408       .  A
C522        F523   1.357       .  S
C527        C528   1.406       .  A
C527        C532   1.389       .  A
C527        F534   1.359       .  S
C528        C529   1.412   1_455  A
C529        C530   1.409       .  A
C529        F536   1.358       .  S
C530        C531   1.407       .  A
C530        F535   1.357       .  S
C531        C532   1.409   1_655  A
C532        F533   1.359       .  S
C537        C538   1.412   1_455  A
C537        C542   1.388       .  A
C537        F544   1.359       .  S
C538        C539   1.408       .  A
C539        C540   1.410       .  A
C539        F546   1.357       .  S
C540        C541   1.411   1_655  A
C540        F545   1.358       .  S
C541        C542   1.404       .  A
C542        F543   1.359       .  S
C547        C548   1.414   1_455  A
C547        C552   1.407       .  A
C547        F554   1.358       .  S
C548        C549   1.411       .  A
C549        C550   1.393       .  A
C549        F556   1.358       .  S
C550        C551   1.404   1_655  A
C550        F555   1.359       .  S
C551        C552   1.405       .  A
C552        F553   1.357       .  S
C557        C558   1.404       .  A
C557        C562   1.397       .  A
C557        F564   1.358       .  S
C558        C559   1.403   1_655  A
C559        C560   1.401       .  A
C559        F566   1.358       .  S
C560        C561   1.405   1_455  A
C560        F565   1.358       .  S
C561        C562   1.402       .  A
C562        F563   1.358       .  S
C567        C568   1.404       .  A
C567        C572   1.394       .  A
C567        F574   1.358       .  S
C568        C569   1.404       .  A
C569        C570   1.402       .  A
C569        F576   1.358       .  S
C570        C571   1.410       .  A
C570        F575   1.358       .  S
C571        C572   1.407       .  A
C572        F573   1.358       .  S
C577        C578   1.414       .  A
C577        C582   1.401       .  A
C577        F584   1.358       .  S
C578        C579   1.409       .  A
C579        C580   1.394       .  A
C579        F586   1.358       .  S
C580        C581   1.407       .  A
C580        F585   1.358       .  S
C581        C582   1.405       .  A
C582        F583   1.358       .  S
C587        C588   1.414       .  A
C587        C592   1.407       .  A
C587        F594   1.358       .  S
C588        C589   1.410       .  A
C589        C590   1.393       .  A
C589        F596   1.358       .  S
C590        C591   1.404       .  A
C590        F595   1.359       .  S
C591        C592   1.404       .  A
C592        F593   1.357       .  S
C597        C598   1.412       .  A
C597        C602   1.409       .  A
C597        F604   1.358       .  S
C598        C599   1.408       .  A
C599        C600   1.390       .  A
C599        F606   1.359       .  S
C600        C601   1.407       .  A
C600        F605   1.359       .  S
C601        C602   1.407       .  A
C602        F603   1.357       .  S
C607        C608   1.403       .  A
C607        C612   1.402       .  A
C607        F614   1.358       .  S
C608        C609   1.404       .  A
C609        C610   1.396       .  A
C609        F616   1.358       .  S
C610        C611   1.402       .  A
C610        F615   1.358       .  S
C611        C612   1.406       .  A
C612        F613   1.358       .  S
C617        C618   1.403       .  A
C617        C622   1.400       .  A
C617        F624   1.358       .  S
C618        C619   1.407   1_554  A
C619        C620   1.400       .  A
C619        F626   1.358       .  S
C620        C621   1.403   1_556  A
C620        F625   1.358       .  S
C621        C622   1.407       .  A
C622        F623   1.358       .  S
C627        C628   1.403       .  A
C627        C632   1.402   1_455  A
C627        F634   1.358   1_556  S
C628        C629   1.403   1_455  A
C629        C630   1.396       .  A
C629        F636   1.358   1_655  S
C630        C631   1.406       .  A
C630        F635   1.358       .  S
C631        C632   1.410       .  A
C632        F633   1.358   1_556  S
C637        C638   1.407   1_554  A
C637        C642   1.400       .  A
C637        F644   1.358       .  S
C638        C639   1.401       .  A
C639        C640   1.397       .  A
C639        F646   1.358       .  S
C640        C641   1.413       .  A
C640        F645   1.358       .  S
C641        C642   1.409   1_556  A
C642        F643   1.358       .  S
C647        C648   1.404       .  A
C647        C652   1.397       .  A
C647        F654   1.358       .  S
C648        C649   1.416   1_554  A
C649        C650   1.399       .  A
C649        F656   1.358       .  S
C650        C651   1.405   1_556  A
C650        F655   1.358       .  S
C651        C652   1.417       .  A
C652        F653   1.358       .  S
C657        C658   1.413   1_556  A
C657        C662   1.398       .  A
C657        F664   1.358       .  S
C658        C659   1.401       .  A
C659        C660   1.399       .  A
C659        F666   1.358       .  S
C660        C661   1.417       .  A
C660        F665   1.358       .  S
C661        C662   1.404   1_554  A
C662        F663   1.358       .  S
C667        C668   1.403       .  A
C667        C672   1.400   1_565  A
C667        F674   1.358       .  S
C668        C669   1.405       .  A
C669        C670   1.400   1_565  A
C669        F676   1.358       .  S
C670        C671   1.403       .  A
C670        F675   1.358       .  S
C671        C672   1.405       .  A
C672        F673   1.358       .  S
C677        C678   1.397       .  A
C677        C682   1.404       .  A
C677        F684   1.357   1_556  S
C678        C679   1.401       .  A
C679        C680   1.398       .  A
C679        F686   1.358       .  S
C680        C681   1.409       .  A
C680        F685   1.358       .  S
C681        C682   1.411       .  A
C682        F683   1.358   1_556  S
C687        C688   1.403       .  A
C687        C692   1.399   1_455  A
C687        F694   1.358       .  S
C688        C689   1.405   1_556  A
C689        C690   1.399   1_455  A
C689        F696   1.358       .  S
C690        C691   1.411   1_554  A
C690        F695   1.358       .  S
C691        C692   1.411       .  A
C692        F693   1.358       .  S
C697        C698   1.404   1_556  A
C697        C702   1.399       .  A
C697        F704   1.358       .  S
C698        C699   1.415       .  A
C699        C700   1.398       .  A
C699        F706   1.358       .  S
C700        C701   1.405       .  A
C700        F705   1.358       .  S
C701        C702   1.415   1_554  A
C702        F703   1.358       .  S
C707        C708   1.402       .  A
C707        C712   1.392   1_565  A
C707        F714   1.359       .  S
C708        C709   1.407       .  A
C709        C710   1.404   1_565  A
C709        F716   1.358       .  S
C710        C711   1.404       .  A
C710        F715   1.357       .  S
C711        C712   1.404       .  A
C712        F713   1.359       .  S
C717        C718   1.410       .  A
C717        C722   1.400       .  A
C717        F724   1.358       .  S
C718        C719   1.404       .  A
C719        C720   1.399       .  A
C719        F726   1.358       .  S
C720        C721   1.409       .  A
C720        F725   1.358       .  S
C721        C722   1.403       .  A
C722        F723   1.358       .  S
C727        C728   1.407       .  A
C727        C732   1.391       .  A
C727        F734   1.359       .  S
C728        C729   1.412       .  A
C729        C730   1.408       .  A
C729        F736   1.358       .  S
C730        C731   1.406       .  A
C730        F735   1.357       .  S
C731        C732   1.408       .  A
C732        F733   1.359       .  S
C737        C738   1.405       .  A
C737        C742   1.408       .  A
C737        F744   1.357       .  S
C738        C739   1.404       .  A
C739        C740   1.391       .  A
C739        F746   1.359       .  S
C740        C741   1.411       .  A
C740        F745   1.358       .  S
C741        C742   1.414       .  A
C742        F743   1.357       .  S
C747        C748   1.408       .  A
C747        C752   1.394       .  A
C747        F754   1.358       .  S
C748        C749   1.406       .  A
C749        C750   1.400       .  A
C749        F756   1.358       .  S
C750        C751   1.412       .  A
C750        F755   1.358       .  S
C751        C752   1.409       .  A
C752        F753   1.358       .  S
C757        C758   1.411       .  A
C757        C762   1.399   1_455  A
C757        F764   1.358       .  S
C758        C759   1.407       .  A
C759        C760   1.394       .  A
C759        F766   1.358       .  S
C760        C761   1.406   1_455  A
C760        F765   1.358   1_455  S
C761        C762   1.404       .  A
C762        F763   1.358       .  S
C767        C768   1.409       .  A
C767        C772   1.398       .  A
C767        F774   1.358       .  S
C768        C769   1.403       .  A
C769        C770   1.398       .  A
C769        F776   1.358       .  S
C770        C771   1.410       .  A
C770        F775   1.358       .  S
C771        C772   1.404       .  A
C772        F773   1.358       .  S
C777        C778   1.410       .  A
C777        C782   1.390       .  A
C777        F784   1.359       .  S
C778        C779   1.408       .  A
C779        C780   1.411       .  A
C779        F786   1.357       .  S
C780        C781   1.412       .  A
C780        F785   1.357       .  S
C781        C782   1.405       .  A
C782        F783   1.359       .  S
C787        C788   1.412       .  A
C787        C792   1.394       .  A
C787        F794   1.358       .  S
C788        C789   1.414       .  A
C789        C790   1.408       .  A
C789        F796   1.357       .  S
C790        C791   1.405       .  A
C790        F795   1.357       .  S
C791        C792   1.403       .  A
C792        F793   1.359       .  S
C797        C798   1.401       .  A
C797        C802   1.399       .  A
C797        F804   1.358       .  S
C798        C799   1.413       .  A
C799        C800   1.397       .  A
C799        F806   1.359       .  S
C800        C801   1.404       .  A
C800        F805   1.358       .  S
C801        C802   1.416       .  A
C802        F803   1.358       .  S
C807        C808   1.395       .  A
C807        C812   1.390       .  A
C807        F814   1.359       .  S
C808        C809   1.407       .  A
C809        C810   1.408       .  A
C809        F816   1.358       .  S
C810        C811   1.410       .  A
C810        F815   1.357       .  S
C811        C812   1.419       .  A
C812        F813   1.358       .  S
C817        C818   1.410       .  A
C817        C822   1.396       .  A
C817        F824   1.358       .  S
C818        C819   1.403       .  A
C819        C820   1.401       .  A
C819        F826   1.357       .  S
C820        C821   1.407       .  A
C820        F825   1.358       .  S
C821        C822   1.398       .  A
C822        F823   1.358       .  S
C827        C828   1.402       .  A
C827        C832   1.398   1_545  A
C827        F834   1.358       .  S
C828        C829   1.406       .  A
C829        C830   1.402   1_545  A
C829        F836   1.358       .  S
C830        C831   1.403       .  A
C830        F835   1.358       .  S
C831        C832   1.405       .  A
C832        F833   1.358       .  S
C837        C838   1.407       .  A
C837        C842   1.402   1_455  A
C837        F844   1.358       .  S
C838        C839   1.407   1_455  A
C839        C840   1.394       .  A
C839        F846   1.358   1_655  S
C840        C841   1.411       .  A
C840        F845   1.358       .  S
C841        C842   1.413       .  A
C842        F843   1.358       .  S
C847        C848   1.409       .  A
C847        C852   1.394       .  A
C847        F854   1.358       .  S
C848        C849   1.411       .  A
C849        C850   1.403       .  A
C849        F856   1.358       .  S
C850        C851   1.411       .  A
C850        F855   1.358       .  S
C851        C852   1.411       .  A
C852        F853   1.358       .  S
C857        C858   1.412       .  A
C857        C862   1.398       .  A
C857        F864   1.358       .  S
C858        C859   1.404       .  A
C859        C860   1.399       .  A
C859        F866   1.358       .  S
C860        C861   1.412       .  A
C860        F865   1.358       .  S
C861        C862   1.403       .  A
C862        F863   1.358       .  S
C867        C868   1.413       .  A
C867        C872   1.408       .  A
C867        F874   1.358       .  S
C868        C869   1.413       .  A
C869        C870   1.395       .  A
C869        F876   1.358       .  S
C870        C871   1.402       .  A
C870        F875   1.359       .  S
C871        C872   1.405       .  A
C872        F873   1.357       .  S
C877        C878   1.410       .  A
C877        C882   1.405       .  A
C877        F884   1.358       .  S
C878        C879   1.412       .  A
C879        C880   1.398       .  A
C879        F886   1.358       .  S
C880        C881   1.401       .  A
C880        F885   1.358       .  S
C881        C882   1.406       .  A
C882        F883   1.358       .  S
C887        C888   1.404       .  A
C887        C892   1.393   1_565  A
C887        F894   1.359       .  S
C888        C889   1.404       .  A
C889        C890   1.405   1_565  A
C889        F896   1.357       .  S
C890        C891   1.407       .  A
C890        F895   1.358       .  S
C891        C892   1.402       .  A
C892        F893   1.359       .  S
