geometry optimzed in LAMMPS
_audit_creation_date              2020-12-01 
_audit_creation_method            'lammps2cif' 
_symmetry_space_group_name_H-M    'P1' 
_symmetry_Int_Tables_number       1 
_symmetry_cell_setting            triclinic 
loop_ 
_symmetry_equiv_pos_as_xyz 
  x,y,z 
_cell_length_a                    54.45112793 
_cell_length_b                    26.19162810724159 
_cell_length_c                    29.022249762620607 
_cell_angle_alpha                 89.81082564174228 
_cell_angle_beta                  119.07015273734615 
_cell_angle_gamma                 90.04741173300214 
loop_ 
_atom_site_label 
_atom_site_type_symbol 
_atom_site_fract_x 
_atom_site_fract_y 
_atom_site_fract_z 
_atom_site_charge 
O1          O  0.12323762  0.28802277  0.44220322    -0.85500
O2          O  0.09031447  0.26237991  0.33940034    -0.82500
C3          C  0.06596178  0.25912794  0.33520998     0.98000
O4          O  0.05457154  0.29812211  0.34163531    -0.82500
O5          O  0.04446725  0.39594952  0.36337108    -0.85200
C6          C  0.05378599  0.39517204  0.41283288     1.02500
O7          O  0.07892768  0.38347980  0.44255840    -0.78000
O8          O  0.13351985  0.36065250  0.48364888    -0.78100
C9          C  0.12962361  0.31287215  0.48341709     1.02500
O10         O  0.15561759  0.36082534  0.41590539    -0.85500
O11         O  0.11815469  0.34062231  0.31098670    -0.82500
C12         C  0.09552514  0.33418448  0.26861789     0.98000
O13         O  0.07217624  0.33522945  0.26864734    -0.82600
O14         O  0.06804669  0.43293129  0.30007819    -0.85200
C15         C  0.07027561  0.47049546  0.32876182     1.02500
O16         O  0.08235896  0.46529467  0.37862847    -0.78000
O17         O  0.13712108  0.43575559  0.41315694    -0.78100
C18         C  0.15782803  0.40933466  0.41959043     1.02400
Cr19       Cr  0.12055082  0.31637645  0.37731603     1.93700
Cr20       Cr  0.06226399  0.36528397  0.32199518     1.93200
Cr21       Cr  0.10742846  0.40848087  0.42590759     1.39100
O22         O  0.09697167  0.36390091  0.37465526    -1.23200
O23         O  0.12589530  0.12386963  0.98119614    -0.85500
O24         O  0.07251719  0.09092161  0.92739186    -0.82500
C25         C  0.04895688  0.07659911  0.89195614     0.98000
O26         O  0.04393883  0.07500017  0.84443559    -0.82500
O27         O  0.04994742  0.17470481  0.82389627    -0.85200
C28         C  0.06046813  0.21733317  0.82376518     1.02500
O29         O  0.08611495  0.22030419  0.83489574    -0.78000
O30         O  0.11420722  0.19653777  0.93892927    -0.78100
C31         C  0.12024242  0.17104667  0.97979781     1.02500
O32         O  0.13996517  0.05489202  0.91971029    -0.85500
O33         O  0.08629425  0.01420342  0.87178785    -0.82500
C34         C  0.07783775  0.00910099  0.82266972     0.98000
O35         O  0.07753534  0.04732414  0.79616587    -0.82600
O36         O  0.07805014  0.14698935  0.76530467    -0.85200
C37         C  0.10287656  0.15417095  0.77310847     1.02500
O38         O  0.12324836  0.15173931  0.81921565    -0.78000
O39         O  0.15493120  0.13383773  0.92611173    -0.78100
C40         C  0.15979465  0.08599382  0.93218366     1.02400
Cr41       Cr  0.10574860  0.07386957  0.92143485     1.93700
Cr42       Cr  0.06464780  0.11161537  0.81141584     1.93200
Cr43       Cr  0.11833758  0.17183408  0.87936504     1.39100
O44         O  0.09649153  0.11893018  0.87059270    -1.23200
O45         O  0.37914733  0.62177611  0.49487214    -0.85500
O46         O  0.43306059  0.59132054  0.54850992    -0.82500
C47         C  0.45700366  0.57879766  0.58417332     0.98000
O48         O  0.46250261  0.57930068  0.63197365    -0.82500
O49         O  0.45441959  0.67991241  0.64771108    -0.85200
C50         C  0.44295836  0.72184230  0.64662349     1.02500
O51         O  0.41751787  0.72293714  0.63705275    -0.78000
O52         O  0.38948893  0.69553047  0.53459795    -0.78100
C53         C  0.38390047  0.66925318  0.49464267     1.02500
O54         O  0.36701385  0.55311263  0.56082144    -0.85500
O55         O  0.42102570  0.51601695  0.60829511    -0.82500
C56         C  0.42992776  0.51267239  0.65768407     0.98000
O57         O  0.43061338  0.55178445  0.68329794    -0.82600
O58         O  0.42798537  0.65215585  0.70944427    -0.85200
C59         C  0.40323506  0.65788579  0.70251727     1.02500
O60         O  0.38251785  0.65266285  0.65707137    -0.78000
O61         O  0.35043937  0.63104917  0.55057676    -0.78100
C62         C  0.34669126  0.58288267  0.54875626     1.02400
Cr63       Cr  0.40042759  0.57363811  0.55648208     1.93700
Cr64       Cr  0.44159173  0.61621503  0.66415266     1.93200
Cr65       Cr  0.38631801  0.67179107  0.59530793     1.39100
O66         O  0.40924786  0.62030419  0.60548718    -1.23200
O67         O  0.38290611  0.79029766  0.03223958    -0.85500
O68         O  0.41422972  0.76439820  0.13605494    -0.82500
C69         C  0.43912576  0.76220350  0.14295803     0.98000
O70         O  0.45019123  0.80147895  0.13595061    -0.82500
O71         O  0.45990703  0.89992162  0.11463143    -0.85200
C72         C  0.45119984  0.90000737  0.06535170     1.02500
O73         O  0.42607153  0.88916537  0.03436756    -0.78000
O74         O  0.37166375  0.86366986  0.99136679    -0.78100
C75         C  0.37603032  0.81606832  0.99112225     1.02500
O76         O  0.34844119  0.86030374  0.05518172    -0.85500
O77         O  0.38442255  0.84050237  0.16110697    -0.82500
C78         C  0.40676605  0.83479517  0.20424969     0.98000
O79         O  0.43049340  0.83717284  0.20587681    -0.82600
O80         O  0.43450517  0.93495896  0.17563772    -0.85200
C81         C  0.43296567  0.97297265  0.14782840     1.02500
O82         O  0.42114210  0.96857308  0.09795711    -0.78000
O83         O  0.36656398  0.93646023  0.06210460    -0.78100
C84         C  0.34599597  0.90871646  0.05399174     1.02400
Cr85       Cr  0.38379607  0.81730427  0.09601892     1.93700
Cr86       Cr  0.44140699  0.86811455  0.15437558     1.93200
Cr87       Cr  0.39682777  0.91163854  0.04989549     1.39100
O88         O  0.40719670  0.86606220  0.10044440    -1.23200
C89         C  0.37121137  0.79192280  0.85722268    -0.27700
C90         C  0.38198777  0.74208404  0.86434965     0.01900
C91         C  0.38836022  0.71560305  0.91095986     0.30000
C92         C  0.38481967  0.73941225  0.95037566    -0.19500
C93         C  0.37511218  0.79019542  0.94463356    -0.28900
C94         C  0.36784860  0.81611594  0.89693527     0.44000
C95         C  0.38731772  0.71837371  0.82374625     0.05200
O96         O  0.39871502  0.66673825  0.91890032    -0.57400
H97         H  0.39070683  0.71834928  0.98645011     0.18100
O98         O  0.35853949  0.86564279  0.88937496    -0.64200
H99         H  0.36618507  0.81267010  0.82134428     0.16600
C100        C  0.36507293  0.70738832  0.77334608     0.28800
C101        C  0.37056597  0.68595833  0.73517370    -0.25100
C102        C  0.39826729  0.67543716  0.74608616    -0.24300
C103        C  0.42056914  0.68604511  0.79710493     0.40300
C104        C  0.41492822  0.70679561  0.83550719    -0.26800
O105        O  0.33786449  0.71792555  0.76086681    -0.58700
H106        H  0.35297104  0.67858931  0.69644232     0.15900
O107        O  0.44795802  0.67695237  0.80986789    -0.60100
H108        H  0.43225419  0.71504619  0.87432597     0.14400
H109        H  0.33794740  0.86320711  0.87542812     0.46200
H110        H  0.33070909  0.68592232  0.76839307     0.41600
H111        H  0.45488023  0.70976147  0.80336653     0.45000
H112        H  0.38190616  0.64442113  0.90243835     0.36500
C113        C  0.37924783  0.81098992  0.29990513    -0.27700
C114        C  0.39758108  0.77238110  0.33173921     0.01900
C115        C  0.42043252  0.75829703  0.32459007     0.30000
C116        C  0.42411285  0.78133329  0.28480303    -0.19500
C117        C  0.40504794  0.81825981  0.25129541    -0.28900
C118        C  0.38277931  0.83376575  0.25975359     0.44000
C119        C  0.39243610  0.74631122  0.37163634     0.05200
O120        O  0.43885595  0.72108775  0.35545793    -0.57400
H121        H  0.44118991  0.76847370  0.27857935     0.18100
O122        O  0.36396831  0.87016756  0.22819140    -0.64200
H123        H  0.36165808  0.82240348  0.30519248     0.16600
C124        C  0.39269914  0.77380538  0.41328963     0.28800
C125        C  0.38865243  0.74834401  0.45148462    -0.25100
C126        C  0.38425015  0.69508924  0.44919389    -0.24300
C127        C  0.38346273  0.66777026  0.40667308     0.40300
C128        C  0.38757909  0.69341991  0.36843107    -0.26800
O129        O  0.39862136  0.82506966  0.41876539    -0.58700
H130        H  0.38981107  0.77048885  0.48394686     0.15900
O131        O  0.38004238  0.61581829  0.40328511    -0.60100
H132        H  0.38727715  0.67184753  0.33636871     0.14400
H133        H  0.37200325  0.90313160  0.24580055     0.46200
H134        H  0.38017283  0.84232528  0.40524473     0.41600
H135        H  0.35943672  0.61040613  0.38272173     0.45000
H136        H  0.45496118  0.73973327  0.38375141     0.36500
C137        C  0.22200146  0.99773729  0.00677880    -0.27700
C138        C  0.24173353  0.01734620  0.99362366     0.01900
C139        C  0.23523187  0.06244706  0.96304481     0.30000
C140        C  0.20885969  0.08606157  0.94461410    -0.19500
C141        C  0.18874998  0.06510744  0.95622663    -0.28900
C142        C  0.19589720  0.02129998  0.98879975     0.44000
C143        C  0.26849836  0.98908350  0.01071229     0.05200
O144        O  0.25374963  0.08164816  0.94806418    -0.57400
H145        H  0.20373607  0.11948281  0.91950049     0.18100
O146        O  0.17732724  0.00072605  0.00295257    -0.64200
H147        H  0.22681322  0.96364844  0.03092175     0.16600
C148        C  0.29467527  0.01267783  0.04147426     0.28800
C149        C  0.31952277  0.98558278  0.05590199    -0.25100
C150        C  0.31899718  0.93423691  0.04113531    -0.24300
C151        C  0.29275691  0.90992012  0.01217628     0.40300
C152        C  0.26782450  0.93739126  0.99707035    -0.26800
O153        O  0.29623966  0.06215168  0.05799938    -0.58700
H154        H  0.33938040  0.00502919  0.07890042     0.15900
O155        O  0.29112592  0.86026499  0.99611422    -0.60100
H156        H  0.24782390  0.91848690  0.97377024     0.14400
H157        H  0.18020719  0.02029472  0.03437995     0.46200
H158        H  0.29712133  0.05965912  0.09287136     0.41600
H159        H  0.28951523  0.83962947  0.02321648     0.45000
H160        H  0.26079963  0.11400327  0.96784500     0.36500
C161        C  0.00754486  0.96374692  0.04341140    -0.27700
C162        C  0.49423778  0.97096933  0.99127491     0.01900
C163        C  0.46770746  0.94824169  0.96148915     0.30000
C164        C  0.45546155  0.92157688  0.98655222    -0.19500
C165        C  0.46838471  0.91882602  0.04188972    -0.28900
C166        C  0.49529860  0.94043981  0.07201439     0.44000
C167        C  0.00607050  0.99938279  0.96127253     0.05200
O168        O  0.45280940  0.95380774  0.90771918    -0.57400
H169        H  0.43478553  0.90548539  0.96204597     0.18100
O170        O  0.00809751  0.93714976  0.12291510    -0.64200
H171        H  0.02821802  0.98011971  0.06704801     0.16600
C172        C  0.01755461  0.04825535  0.97923838     0.28800
C173        C  0.02955353  0.07524579  0.95342405    -0.25100
C174        C  0.02968849  0.05485166  0.90884370    -0.24300
C175        C  0.01655167  0.00771462  0.88884403     0.40300
C176        C  0.00567822  0.97973321  0.91586048    -0.26800
O177        O  0.51724849  0.07231823  0.02326611    -0.58700
H178        H  0.03959713  0.11160675  0.96928847     0.15900
O179        O  0.01622525  0.98668969  0.84540357    -0.61700
H180        H  0.99734518  0.94199067  0.90165210     0.14400
H181        H  0.51914049  0.90651187  0.13603052     0.46200
H182        H  0.53699880  0.07270518  0.05223036     0.41600
H183        H  0.99859546  0.99911035  0.81495992     0.45000
H184        H  0.44303948  0.98712541  0.90161709     0.36500
C185        C  0.03188732  0.91968283  0.71095284    -0.27700
C186        C  0.02206279  0.88703301  0.73670695     0.01900
C187        C  0.03412488  0.88948705  0.79185351     0.30000
C188        C  0.05478812  0.92602525  0.82030437    -0.19500
C189        C  0.06296732  0.96196430  0.79426973    -0.28900
C190        C  0.05191824  0.95732380  0.73905680     0.44000
C191        C  0.00000636  0.84902910  0.70618244     0.05200
O192        O  0.02584418  0.85613246  0.81823641    -0.57400
H193        H  0.06298128  0.92828431  0.86252829     0.18100
O194        O  0.06007640  0.98997987  0.71192347    -0.64200
H195        H  0.52231511  0.91710514  0.67019297     0.16600
C196        C  0.47284713  0.85082693  0.70601100     0.28800
C197        C  0.45360933  0.81078294  0.68237743    -0.25100
C198        C  0.46058274  0.76849418  0.66137491    -0.24300
C199        C  0.48626837  0.76903184  0.66017099     0.40300
C200        C  0.00645825  0.80809616  0.68315143    -0.26800
O201        O  0.46574439  0.89161250  0.72674853    -0.58700
H202        H  0.43386487  0.81167815  0.68293720     0.15900
O203        O  0.49361215  0.72960411  0.63825713    -0.60100
H204        H  0.02686223  0.80608319  0.68526342     0.14400
H205        H  0.04439733  0.01468424  0.69415981     0.46200
H206        H  0.46482769  0.87800326  0.75779656     0.41600
H207        H  0.48347929  0.73632841  0.59976154     0.45000
H208        H  0.01399596  0.87649310  0.82862184     0.36500
C209        C  0.03078197  0.35119407  0.77943185    -0.27700
C210        C  0.00242371  0.34325728  0.76499761     0.01900
C211        C  0.49373675  0.29521432  0.77625569     0.30000
C212        C  0.01324081  0.25541568  0.79402580    -0.19500
C213        C  0.04155876  0.26242716  0.80693913    -0.28900
C214        C  0.05034484  0.31127484  0.80037406     0.44000
C215        C  0.48124124  0.38430544  0.74087016     0.05200
O216        O  0.46649952  0.28683092  0.76494279    -0.57400
H217        H  0.00577541  0.21853257  0.79894609     0.18100
O218        O  0.07760065  0.32003665  0.81214184    -0.64200
H219        H  0.03760625  0.38812006  0.77300779     0.16600
C220        C  0.48484550  0.43158145  0.76595702     0.28800
C221        C  0.46634395  0.47168074  0.73961906    -0.25100
C222        C  0.44448796  0.46605440  0.68738330    -0.24300
C223        C  0.44022624  0.41799841  0.66302155     0.40300
C224        C  0.45837956  0.37734902  0.69005653    -0.26800
O225        O  0.50647876  0.43892135  0.81621251    -0.58700
H226        H  0.47024110  0.50825175  0.75928984     0.15900
O227        O  0.41862345  0.41053022  0.61280941    -0.60100
H228        H  0.45529961  0.34088354  0.67047462     0.14400
H229        H  0.08718912  0.33226035  0.84912760     0.46200
H230        H  0.52082150  0.45872060  0.81205409     0.41600
H231        H  0.42738880  0.41199177  0.58982369     0.45000
H232        H  0.46636802  0.29284143  0.79854319     0.36500
C233        C  0.11777715  0.21204425  0.56530836    -0.27700
C234        C  0.12228682  0.23998452  0.60963306     0.01900
C235        C  0.13157571  0.29088117  0.61480843     0.30000
C236        C  0.13538869  0.31370147  0.57485581    -0.19500
C237        C  0.13009619  0.28621747  0.52933621    -0.28900
C238        C  0.12158384  0.23446211  0.52544731     0.44000
C239        C  0.11709989  0.21542795  0.65007711     0.05200
O240        O  0.13637614  0.31891715  0.65822822    -0.57400
H241        H  0.14163823  0.35341905  0.57882001     0.18100
O242        O  0.11632068  0.20539838  0.48236693    -0.64200
H243        H  0.11089351  0.17267727  0.56125649     0.16600
C244        C  0.08961346  0.20483130  0.64013480     0.28800
C245        C  0.08517533  0.18296081  0.67967881    -0.25100
C246        C  0.10798641  0.17043434  0.72925952    -0.24300
C247        C  0.13559947  0.17846763  0.73767785     0.40300
C248        C  0.13988687  0.20141858  0.69855696    -0.26800
O249        O  0.06694076  0.21785021  0.59270527    -0.58700
H250        H  0.06379943  0.17716624  0.67191205     0.15900
O251        O  0.15867528  0.16535424  0.78448175    -0.60100
H252        H  0.16114264  0.20835748  0.70609573     0.14400
H253        H  0.09568471  0.20728931  0.45889777     0.46200
H254        H  0.06207904  0.18635274  0.57117342     0.41600
H255        H  0.16225020  0.12892739  0.78054717     0.45000
H256        H  0.11805215  0.33489523  0.64902752     0.36500
C257        C  0.12285955  0.31196304  0.17244533    -0.27700
C258        C  0.10405954  0.27477343  0.13928985     0.01900
C259        C  0.08071631  0.26156137  0.14541212     0.30000
C260        C  0.07715115  0.28373258  0.18568757    -0.19500
C261        C  0.09678058  0.31899858  0.22065349    -0.28900
C262        C  0.11940880  0.33393833  0.21287913     0.44000
C263        C  0.10963302  0.24854486  0.09997343     0.05200
O264        O  0.06173295  0.22587561  0.11318022    -0.57400
H265        H  0.05974332  0.27133974  0.19116041     0.18100
O266        O  0.13884377  0.36871085  0.24569601    -0.64200
H267        H  0.14088511  0.32265034  0.16820306     0.16600
C268        C  0.11193182  0.27626356  0.06068736     0.28800
C269        C  0.11663693  0.25060082  0.02342158    -0.25100
C270        C  0.11934435  0.19701277  0.02452866    -0.24300
C271        C  0.11771563  0.16944869  0.06483496     0.40300
C272        C  0.11296538  0.19525177  0.10209917    -0.26800
O273        O  0.10800532  0.32816830  0.05658969    -0.58700
H274        H  0.11744588  0.27287401  0.99266062     0.15900
O275        O  0.11996935  0.11725301  0.06750886    -0.60100
H276        H  0.11160313  0.17346233  0.13257668     0.14400
H277        H  0.13051567  0.40260884  0.23122865     0.46200
H278        H  0.12709634  0.34298403  0.07102010     0.41600
H279        H  0.10039632  0.10450138  0.04745660     0.45000
H280        H  0.04618879  0.24582338  0.08503732     0.36500
C281        C  0.50595081  0.16768939  0.29684923    -0.27700
C282        C  0.00987739  0.13333479  0.26245334     0.01900
C283        C  0.03449294  0.13806440  0.25817502     0.30000
C284        C  0.05378994  0.17716797  0.28502127    -0.19500
C285        C  0.04892897  0.21192407  0.31648590    -0.28900
C286        C  0.02503568  0.20512735  0.32302777     0.44000
C287        C  0.48913065  0.09484926  0.23410588     0.05200
O288        O  0.03953072  0.10541310  0.22685231    -0.57400
H289        H  0.07186766  0.18170660  0.27917468     0.18100
O290        O  0.01970070  0.23733934  0.35431142    -0.64200
H291        H  0.48689183  0.16493765  0.29974656     0.16600
C292        C  0.47936384  0.06084429  0.25918901     0.28800
C293        C  0.45943138  0.02376313  0.22974338    -0.25100
C294        C  0.44888915  0.01952408  0.17499347    -0.24300
C295        C  0.45793176  0.05497431  0.14961025     0.40300
C296        C  0.47787389  0.09218805  0.17918903    -0.26800
O297        O  0.49066666  0.06124737  0.31299488    -0.58700
H298        H  0.45316479  0.99673146  0.25043423     0.15900
O299        O  0.44900924  0.05154722  0.09666772    -0.60100
H300        H  0.98261748  0.11997401  0.15652368     0.14400
H301        H  0.02875321  0.22101609  0.38964602     0.46200
H302        H  0.47579431  0.07560381  0.31954580     0.41600
H303        H  0.43181035  0.07288624  0.07939779     0.45000
H304        H  0.05096556  0.07738471  0.25062729     0.36500
C305        C  0.02793200  0.56776622  0.22320393    -0.27700
C306        C  0.01610009  0.59654966  0.24814672     0.01900
C307        C  0.02461320  0.58723046  0.30162612     0.30000
C308        C  0.04390709  0.54817894  0.32878406    -0.19500
C309        C  0.05492582  0.51793178  0.30317393    -0.28900
C310        C  0.04722173  0.52891093  0.25020781     0.44000
C311        C  0.99531230  0.63675459  0.21791539     0.05200
O312        O  0.01384425  0.61547927  0.32739734    -0.57400
H313        H  0.04922226  0.54006184  0.36921660     0.18100
O314        O  0.05762633  0.50073058  0.22376011    -0.64200
H315        H  0.02170493  0.57478725  0.18215079     0.16600
C316        C  0.00244264  0.67631953  0.19383050     0.28800
C317        C  0.48392624  0.71618259  0.16968223    -0.25100
C318        C  0.45696051  0.71618841  0.16505383    -0.24300
C319        C  0.44935288  0.67542518  0.18753677     0.40300
C320        C  0.46887807  0.63680644  0.21537644    -0.26800
O321        O  0.02889107  0.67924807  0.19930534    -0.58700
H322        H  0.49048946  0.74698288  0.15310962     0.15900
O323        O  0.42349109  0.67403185  0.18475159    -0.60100
H324        H  0.46292260  0.60596238  0.23291482     0.14400
H325        H  0.07641992  0.51536665  0.23436352     0.46200
H326        H  0.04034692  0.69740886  0.23304805     0.41600
H327        H  0.41135689  0.65448155  0.15231233     0.45000
H328        H  0.52667266  0.64561852  0.34398988     0.36500
C329        C  0.21490271  0.51175727  0.46458963    -0.27700
C330        C  0.23734959  0.48518855  0.46511603     0.01900
C331        C  0.23326167  0.43369816  0.44868387     0.30000
C332        C  0.20738530  0.40942149  0.43359122    -0.19500
C333        C  0.18495744  0.43587636  0.43379096    -0.28900
C334        C  0.18898090  0.48800800  0.44882738     0.44000
C335        C  0.26524004  0.51088806  0.48589008     0.05200
O336        O  0.25447078  0.40663126  0.44741875    -0.57400
H337        H  0.20491139  0.36974461  0.42175592     0.18100
O338        O  0.16814299  0.51590351  0.45058763    -0.64200
H339        H  0.21766689  0.55099850  0.47787436     0.16600
C340        C  0.26806194  0.55906666  0.46689987     0.28800
C341        C  0.29443500  0.58328245  0.48891388    -0.25100
C342        C  0.31837683  0.56005562  0.52980903    -0.24300
C343        C  0.31540278  0.51215625  0.54915280     0.40300
C344        C  0.28913180  0.48814771  0.52729661    -0.26800
O345        O  0.24543579  0.58152171  0.42502713    -0.58700
H346        H  0.29631665  0.61947739  0.47272126     0.15900
O347        O  0.33811816  0.48827318  0.58953214    -0.60100
H348        H  0.28736583  0.45174301  0.54328666     0.14400
H349        H  0.15871174  0.53459523  0.41655520     0.46200
H350        H  0.24017769  0.61070731  0.44012623     0.41600
H351        H  0.33911810  0.50180329  0.62228698     0.45000
H352        H  0.25282753  0.41450804  0.41258539     0.36500
C353        C  0.00164729  0.48222911  0.56160269    -0.27700
C354        C  0.50113224  0.50144778  0.51756515     0.01900
C355        C  0.48925235  0.54995032  0.49850317     0.30000
C356        C  0.47671891  0.57683126  0.52320829    -0.19500
C357        C  0.47638758  0.55671102  0.56782580    -0.28900
C358        C  0.48949828  0.50952127  0.58852680     0.44000
C359        C  0.01315220  0.47015142  0.48890825     0.05200
O360        O  0.48922963  0.57099879  0.45513975    -0.57400
H361        H  0.46635543  0.61282073  0.50640044     0.18100
O362        O  0.48899556  0.48822416  0.63131845    -0.64200
H363        H  0.01056614  0.44499260  0.57699167     0.16600
C364        C  0.04025113  0.44943684  0.51813254     0.28800
C365        C  0.05189377  0.42134750  0.49292008    -0.25100
C366        C  0.03755073  0.41490944  0.43780241    -0.24300
C367        C  0.00998330  0.43412537  0.40854554     0.40300
C368        C  0.49851106  0.46348624  0.43573577    -0.26800
O369        O  0.05615990  0.45836167  0.57120671    -0.58700
H370        H  0.07310701  0.40713191  0.51677910     0.15900
O371        O  0.49612032  0.43292525  0.35599734    -0.60100
H372        H  0.47756216  0.47909061  0.41265188     0.14400
H373        H  0.47346542  0.46305587  0.61647951     0.46200
H374        H  0.06612578  0.49088809  0.57399513     0.41600
H375        H  0.48451910  0.40171692  0.34878124     0.45000
H376        H  0.50777282  0.58789018  0.46888359     0.36500
O377        O  0.62344927  0.28894951  0.44374916    -0.85500
O378        O  0.59057608  0.26339586  0.34099858    -0.82500
C379        C  0.56621515  0.26034611  0.33674615     0.98000
O380        O  0.55484025  0.29946560  0.34298915    -0.82500
O381        O  0.54500654  0.39747062  0.36486710    -0.85200
C382        C  0.55430180  0.39690441  0.41434391     1.02500
O383        O  0.57945314  0.38529493  0.44418926    -0.78000
O384        O  0.63394688  0.36159835  0.48515836    -0.78100
C385        C  0.62986767  0.31387833  0.48493556     1.02500
O386        O  0.65607835  0.36111834  0.41746391    -0.85500
O387        O  0.61860855  0.34109781  0.31256045    -0.82500
C388        C  0.59597253  0.33480088  0.27016664     0.98000
O389        O  0.57261184  0.33619539  0.27014243    -0.82600
O390        O  0.56872334  0.43400090  0.30155434    -0.85200
C391        C  0.57095844  0.47154583  0.33024197     1.02500
O392        O  0.58311825  0.46639847  0.38009758    -0.78000
O393        O  0.63770646  0.43623557  0.41431808    -0.78100
C394        C  0.65835818  0.40960345  0.42086334     1.02400
Cr395      Cr  0.62089817  0.31707654  0.37888372     1.93700
Cr396      Cr  0.56273913  0.36650330  0.32345582     1.93200
Cr397      Cr  0.60801822  0.40954883  0.42735762     1.39100
O398        O  0.59742046  0.36485032  0.37617406    -1.23200
O399        O  0.62583335  0.12399314  0.98220896    -0.85500
O400        O  0.57240813  0.09173659  0.92830629    -0.82500
C401        C  0.54886716  0.07717221  0.89307890     0.98000
O402        O  0.54382970  0.07499803  0.84556527    -0.82500
O403        O  0.54969253  0.17444390  0.82440405    -0.85200
C404        C  0.56022795  0.21713188  0.82458379     1.02500
O405        O  0.58588729  0.22019159  0.83576528    -0.78000
O406        O  0.61403816  0.19650326  0.93977995    -0.78100
C407        C  0.62007964  0.17111004  0.98070652     1.02500
O408        O  0.63980243  0.05460495  0.92103766    -0.85500
O409        O  0.58602784  0.01418755  0.87312763    -0.82500
C410        C  0.57761569  0.00884064  0.82404841     0.98000
O411        O  0.57748981  0.04688339  0.79748015    -0.82600
O412        O  0.57789149  0.14652783  0.76605120    -0.85200
C413        C  0.60269091  0.15399088  0.77380963     1.02500
O414        O  0.62308635  0.15180797  0.81992109    -0.78000
O415        O  0.65474444  0.13354776  0.92673831    -0.78100
C416        C  0.65959825  0.08567661  0.93294588     1.02400
Cr417      Cr  0.60558534  0.07399541  0.92254299     1.93700
Cr418      Cr  0.56451860  0.11131608  0.81231588     1.93200
Cr419      Cr  0.61816724  0.17174467  0.88016327     1.39100
O420        O  0.59636910  0.11881753  0.87147649    -1.23200
O421        O  0.87912038  0.62103152  0.49313780    -0.85500
O422        O  0.93321829  0.59144935  0.54669720    -0.82500
C423        C  0.95721246  0.57908730  0.58228768     0.98000
O424        O  0.96281341  0.57965317  0.63013474    -0.82500
O425        O  0.95473378  0.68014623  0.64536512    -0.85200
C426        C  0.94336679  0.72218187  0.64417975     1.02500
O427        O  0.91789847  0.72347895  0.63450923    -0.78000
O428        O  0.88954147  0.69504771  0.53225357    -0.78100
C429        C  0.88381133  0.66844860  0.49242188     1.02500
O430        O  0.86758306  0.55290545  0.56009999    -0.85500
O431        O  0.92159567  0.51640130  0.60718752    -0.82500
C432        C  0.93051264  0.51315677  0.65657016     0.98000
O433        O  0.93125190  0.55235678  0.68213810    -0.82600
O434        O  0.92860175  0.65308161  0.70769997    -0.85200
C435        C  0.90390293  0.65890731  0.70097361     1.02500
O436        O  0.88309887  0.65350744  0.65567955    -0.78000
O437        O  0.85084974  0.63074678  0.54965755    -0.78100
C438        C  0.84723536  0.58253651  0.54825495     1.02400
Cr439      Cr  0.90076224  0.57355957  0.55512688     1.93700
Cr440      Cr  0.94203881  0.61671043  0.66240023     1.93200
Cr441      Cr  0.88666681  0.67198154  0.59350400     1.39100
O442        O  0.90960977  0.62050353  0.60387936    -1.23200
O443        O  0.88192824  0.79041205  0.02709636    -0.85500
O444        O  0.91301362  0.76239606  0.13100709    -0.82500
C445        C  0.93801815  0.76018480  0.13847280     0.98000
O446        O  0.94919748  0.79952597  0.13192333    -0.82500
O447        O  0.95938091  0.89786813  0.11159690    -0.85200
C448        C  0.95056497  0.89845684  0.06226645     1.02500
O449        O  0.92528383  0.88876305  0.03123923    -0.78000
O450        O  0.87072341  0.86479874  0.98833161    -0.78100
C451        C  0.87498361  0.81739696  0.98666910     1.02500
O452        O  0.84777608  0.86004320  0.05145190    -0.85500
O453        O  0.88345020  0.83798641  0.15697386    -0.82500
C454        C  0.90575040  0.83217626  0.20018846     0.98000
O455        O  0.92955111  0.83486230  0.20211333    -0.82600
O456        O  0.93445023  0.93306463  0.17346340    -0.85200
C457        C  0.93285247  0.97142204  0.14597065     1.02500
O458        O  0.92104117  0.96742292  0.09611512    -0.78000
O459        O  0.86635965  0.93611227  0.06053536    -0.78100
C460        C  0.84556141  0.90849432  0.05125380     1.02400
Cr461      Cr  0.88287356  0.81610825  0.09157091     1.93700
Cr462      Cr  0.94075963  0.86611720  0.15113734     1.93200
Cr463      Cr  0.89634887  0.91137204  0.04750668     1.39100
O464        O  0.90652882  0.86491944  0.09719418    -1.23200
C465        C  0.87939811  0.79873022  0.86085324    -0.27700
C466        C  0.88157521  0.74545314  0.86009320     0.01900
C467        C  0.87882791  0.71592354  0.89774733     0.30000
C468        C  0.87505743  0.73981772  0.93692933    -0.19500
C469        C  0.87377238  0.79343335  0.93918766    -0.28900
C470        C  0.87535459  0.82282600  0.89976626     0.44000
C471        C  0.88745002  0.72094415  0.82069723     0.05200
O472        O  0.88124564  0.66378420  0.89813583    -0.57400
H473        H  0.87407596  0.71620515  0.96671021     0.18100
O474        O  0.87480373  0.87513347  0.90070387    -0.64200
H475        H  0.88144491  0.82175057  0.83180913     0.16600
C476        C  0.86554563  0.70095917  0.77397403     0.28800
C477        C  0.87137408  0.67918340  0.73635937    -0.25100
C478        C  0.89907420  0.67670040  0.74458405    -0.24300
C479        C  0.92111925  0.69588798  0.79232293     0.40300
C480        C  0.91516577  0.71766537  0.82990585    -0.26800
O481        O  0.83824446  0.70427556  0.76391394    -0.58700
H482        H  0.85397993  0.66512814  0.70009595     0.15900
O483        O  0.94845915  0.69466734  0.80232619    -0.60100
H484        H  0.93220192  0.73274322  0.86607946     0.14400
H485        H  0.85477083  0.88450686  0.87826282     0.46200
H486        H  0.83429960  0.67102583  0.77538928     0.41600
H487        H  0.95163490  0.72820737  0.79016590     0.45000
H488        H  0.86172788  0.65101884  0.87723007     0.36500
C489        C  0.87788830  0.80756348  0.29523881    -0.27700
C490        C  0.89654738  0.76963876  0.32763886     0.01900
C491        C  0.91961476  0.75613329  0.32097576     0.30000
C492        C  0.92325383  0.77915623  0.28113116    -0.19500
C493        C  0.90390848  0.81545445  0.24707661    -0.28900
C494        C  0.88134287  0.83026814  0.25497862     0.44000
C495        C  0.89167388  0.74402387  0.36801396     0.05200
O496        O  0.93831915  0.71955588  0.35244325    -0.57400
H497        H  0.94055828  0.76681338  0.27535682     0.18100
O498        O  0.86219519  0.86595204  0.22283894    -0.64200
H499        H  0.86016755  0.81856527  0.30029825     0.16600
C500        C  0.89317055  0.77169683  0.41058764     0.28800
C501        C  0.88935082  0.74676117  0.44926897    -0.25100
C502        C  0.88398251  0.69382536  0.44659498    -0.24300
C503        C  0.88198889  0.66631309  0.40316359     0.40300
C504        C  0.88589935  0.69146586  0.36441564    -0.26800
O505        O  0.90002937  0.82256573  0.41636412    -0.58700
H506        H  0.89145604  0.76903130  0.48238585     0.15900
O507        O  0.87747229  0.61463426  0.39921101    -0.60100
H508        H  0.88469835  0.66979242  0.33164675     0.14400
H509        H  0.87042540  0.89939169  0.23883290     0.46200
H510        H  0.88187265  0.84095948  0.40235982     0.41600
H511        H  0.85675957  0.61064588  0.37901919     0.45000
H512        H  0.95414842  0.73875107  0.38073040     0.36500
C513        C  0.72197685  0.99717148  0.00547617    -0.27700
C514        C  0.74138553  0.01709359  0.99165129     0.01900
C515        C  0.73465156  0.06239287  0.96138720     0.30000
C516        C  0.70834458  0.08594711  0.94389363    -0.19500
C517        C  0.68853105  0.06475632  0.95618274    -0.28900
C518        C  0.69593418  0.02069852  0.98846726     0.44000
C519        C  0.76810898  0.98904760  0.00789925     0.05200
O520        O  0.75288153  0.08191566  0.94586494    -0.57400
H521        H  0.70302668  0.11954177  0.91897434     0.18100
O522        O  0.67768329  0.99986453  0.00327358    -0.64200
H523        H  0.72700168  0.96289634  0.02940621     0.16600
C524        C  0.79429060  0.01220629  0.03970156     0.28800
C525        C  0.81913115  0.98508118  0.05407449    -0.25100
C526        C  0.81855853  0.93417667  0.03803906    -0.24300
C527        C  0.79228320  0.91046762  0.00744379     0.40300
C528        C  0.76737623  0.93791634  0.99259916    -0.26800
O529        O  0.79585223  0.06124725  0.05733089    -0.58700
H530        H  0.83901104  0.00411216  0.07807710     0.15900
O531        O  0.79062557  0.86151180  0.98956523    -0.60100
H532        H  0.74735429  0.91944710  0.96830092     0.14400
H533        H  0.68166870  0.01776122  0.03624731     0.46200
H534        H  0.79646374  0.05784069  0.09190907     0.41600
H535        H  0.78872658  0.83966064  0.01561200     0.45000
H536        H  0.76035132  0.11374913  0.96642078     0.36500
C537        C  0.50816519  0.96576957  0.04658626    -0.27700
C538        C  0.99353611  0.96919511  0.98810703     0.01900
C539        C  0.96708252  0.94615990  0.95834746     0.30000
C540        C  0.95496968  0.91915572  0.98345912    -0.19500
C541        C  0.96785674  0.91663501  0.03880527    -0.28900
C542        C  0.99475125  0.93827934  0.06888341     0.44000
C543        C  0.50686909  0.00059475  0.96430740     0.05200
O544        O  0.95206861  0.95192370  0.90461339    -0.57400
H545        H  0.93435357  0.90283754  0.95899734     0.18100
O546        O  0.50864595  0.93922525  0.12604445    -0.64200
H547        H  0.52885383  0.98209371  0.07022284     0.16600
C548        C  0.51805494  0.04979197  0.98138802     0.28800
C549        C  0.52965655  0.07662022  0.95478384    -0.25100
C550        C  0.52977166  0.05561558  0.91041189    -0.24300
C551        C  0.51708380  0.00795970  0.89150427     0.40300
C552        C  0.50657053  0.98022312  0.91925238    -0.26800
O553        O  0.01665095  0.07032592  0.02122312    -0.58700
H554        H  0.53945483  0.11331508  0.96991658     0.15900
O555        O  0.51684800  0.98628597  0.84842169    -0.61700
H556        H  0.49847803  0.94219379  0.90578913     0.14400
H557        H  0.01877442  0.90462650  0.13296924     0.46200
H558        H  0.03637440  0.07062968  0.05029800     0.41600
H559        H  0.49904862  0.99790208  0.81780785     0.45000
H560        H  0.94189442  0.98476113  0.89872704     0.36500
C561        C  0.53109057  0.91964106  0.71256868    -0.27700
C562        C  0.52137649  0.88706797  0.73857138     0.01900
C563        C  0.53366011  0.88952771  0.79376668     0.30000
C564        C  0.55448427  0.92589735  0.82201396    -0.19500
C565        C  0.56255146  0.96177438  0.79574645    -0.28900
C566        C  0.55123750  0.95717034  0.74046743     0.44000
C567        C  0.49926258  0.84905900  0.70823054     0.05200
O568        O  0.52548598  0.85627437  0.82040534    -0.57400
H569        H  0.56290089  0.92808935  0.86430132     0.18100
O570        O  0.55925111  0.98975542  0.71306059    -0.64200
H571        H  0.02328630  0.91711649  0.66862001     0.16600
C572        C  0.97321907  0.85169739  0.70227484     0.28800
C573        C  0.95392129  0.81174620  0.67850554    -0.25100
C574        C  0.96119887  0.76864390  0.65903333    -0.24300
C575        C  0.98738038  0.76819611  0.65965105     0.40300
C576        C  0.50529835  0.80903036  0.68352891    -0.26800
O577        O  0.96583074  0.89321761  0.72161178    -0.58700
H578        H  0.93385417  0.81340075  0.67776521     0.15900
O579        O  0.99516108  0.72788543  0.63948154    -0.60100
H580        H  0.52537281  0.80776023  0.68423313     0.14400
H581        H  0.54362798  0.01462866  0.69566846     0.46200
H582        H  0.96497035  0.88062137  0.75303832     0.41600
H583        H  0.98684889  0.73524568  0.60126068     0.45000
H584        H  0.51417933  0.87691858  0.83184197     0.36500
C585        C  0.53015719  0.35056787  0.77918616    -0.27700
C586        C  0.50199679  0.34287014  0.76632150     0.01900
C587        C  0.99382193  0.29519916  0.77317068     0.30000
C588        C  0.51323539  0.25549982  0.79696365    -0.19500
C589        C  0.54131093  0.26223951  0.80813770    -0.28900
C590        C  0.54981134  0.31080206  0.80015302     0.44000
C591        C  0.98175808  0.38474368  0.73943281     0.05200
O592        O  0.96630706  0.28648137  0.75980676    -0.57400
H593        H  0.50603357  0.21888697  0.80322215     0.18100
O594        O  0.57685341  0.31939551  0.81050718    -0.64200
H595        H  0.53674932  0.38719982  0.77155775     0.16600
C596        C  0.98470235  0.43136432  0.76528865     0.28800
C597        C  0.96617352  0.47145741  0.73898013    -0.25100
C598        C  0.94493595  0.46640332  0.68613140    -0.24300
C599        C  0.94127768  0.41886018  0.66104394     0.40300
C600        C  0.95949703  0.37830227  0.68792923    -0.26800
O601        O  0.00567193  0.43803605  0.81627487    -0.58700
H602        H  0.96956873  0.50759334  0.75925558     0.15900
O603        O  0.92020870  0.41182827  0.61023376    -0.60100
H604        H  0.95691326  0.34230172  0.66778756     0.14400
H605        H  0.58693213  0.33151984  0.84751138     0.46200
H606        H  0.02044890  0.45789425  0.81357595     0.41600
H607        H  0.92953105  0.41311703  0.58819188     0.45000
H608        H  0.96566084  0.28944318  0.79326864     0.36500
C609        C  0.61827703  0.21293767  0.56712979    -0.27700
C610        C  0.62240748  0.24101612  0.61113167     0.01900
C611        C  0.63119117  0.29221144  0.61589807     0.30000
C612        C  0.63506149  0.31505924  0.57599834    -0.19500
C613        C  0.63021135  0.28736528  0.53083549    -0.28900
C614        C  0.62201625  0.23543584  0.52722034     0.44000
C615        C  0.61711608  0.21633103  0.65140422     0.05200
O616        O  0.63547065  0.32047379  0.65887133    -0.57400
H617        H  0.64098022  0.35494621  0.57968419     0.18100
O618        O  0.61696769  0.20626648  0.48432424    -0.64200
H619        H  0.61165510  0.17342102  0.56328620     0.16600
C620        C  0.58955053  0.20787199  0.64204803     0.28800
C621        C  0.58498765  0.18554950  0.68126173    -0.25100
C622        C  0.60772962  0.17040871  0.72989787    -0.24300
C623        C  0.63533635  0.17612286  0.73754448     0.40300
C624        C  0.63979410  0.19957250  0.69880458    -0.26800
O625        O  0.56697444  0.22316907  0.59547365    -0.58700
H626        H  0.56361053  0.18149596  0.67406536     0.15900
O627        O  0.65825893  0.15998299  0.78317260    -0.60100
H628        H  0.66107701  0.20468363  0.70575941     0.14400
H629        H  0.59633676  0.20787963  0.46072812     0.46200
H630        H  0.56139735  0.19256257  0.57259490     0.41600
H631        H  0.66023836  0.12319079  0.77768828     0.45000
H632        H  0.61695322  0.33588934  0.64914120     0.36500
C633        C  0.62321543  0.31183641  0.17391715    -0.27700
C634        C  0.60425759  0.27485887  0.14071342     0.01900
C635        C  0.58091572  0.26192882  0.14693818     0.30000
C636        C  0.57744850  0.28427384  0.18725147    -0.19500
C637        C  0.59720509  0.31937046  0.22222993    -0.28900
C638        C  0.61989645  0.33391215  0.21446663     0.44000
C639        C  0.60963016  0.24860857  0.10115705     0.05200
O640        O  0.56182444  0.22636330  0.11474897    -0.57400
H641        H  0.56000629  0.27214660  0.19274041     0.18100
O642        O  0.63951345  0.36838129  0.24738724    -0.64200
H643        H  0.64124609  0.32228622  0.16959051     0.16600
C644        C  0.61159198  0.27629550  0.06150600     0.28800
C645        C  0.61617139  0.25064381  0.02407417    -0.25100
C646        C  0.61908979  0.19708913  0.02537123    -0.24300
C647        C  0.61767257  0.16953902  0.06591167     0.40300
C648        C  0.61306258  0.19534071  0.10335891    -0.26800
O649        O  0.60749221  0.32815673  0.05727910    -0.58700
H650        H  0.61675900  0.27290004  0.99308986     0.15900
O651        O  0.62001787  0.11735527  0.06866750    -0.60100
H652        H  0.61189688  0.17357296  0.13404981     0.14400
H653        H  0.63114937  0.40242071  0.23357954     0.46200
H654        H  0.62651777  0.34317650  0.07145418     0.41600
H655        H  0.60044257  0.10449495  0.04937728     0.45000
H656        H  0.54647165  0.24637964  0.08630299     0.36500
C657        C  0.00570986  0.16650775  0.29579197    -0.27700
C658        C  0.51071122  0.13372323  0.26483134     0.01900
C659        C  0.53566130  0.13803811  0.26167232     0.30000
C660        C  0.55470046  0.17753669  0.28821372    -0.19500
C661        C  0.54924193  0.21310067  0.31824932    -0.28900
C662        C  0.52500268  0.20674676  0.32375343     0.44000
C663        C  0.98816972  0.09454422  0.23188184     0.05200
O664        O  0.54127328  0.10461637  0.23168968    -0.57400
H665        H  0.57307240  0.18168748  0.28322907     0.18100
O666        O  0.51904144  0.23978899  0.35358349    -0.64200
H667        H  0.98693076  0.16342785  0.29959744     0.16600
C668        C  0.97913106  0.05953875  0.25736239     0.28800
C669        C  0.95952593  0.02187261  0.22818383    -0.25100
C670        C  0.94847427  0.01822395  0.17326565    -0.24300
C671        C  0.95649323  0.05506439  0.14743752     0.40300
C672        C  0.97623476  0.09265639  0.17679075    -0.26800
O673        O  0.99085182  0.05957104  0.31124490    -0.58700
H674        H  0.95391429  0.99400913  0.24916029     0.15900
O675        O  0.94670338  0.05282269  0.09412524    -0.60100
H676        H  0.48492140  0.11861765  0.15924832     0.14400
H677        H  0.52873938  0.22535709  0.38977089     0.46200
H678        H  0.97614859  0.07367097  0.31842283     0.41600
H679        H  0.92919581  0.07337664  0.07814646     0.45000
H680        H  0.55238798  0.07677842  0.25619929     0.36500
C681        C  0.52821358  0.56890414  0.22517341    -0.27700
C682        C  0.51655263  0.59744871  0.25056624     0.01900
C683        C  0.52508762  0.58765526  0.30395356     0.30000
C684        C  0.54444768  0.54865216  0.33074367    -0.19500
C685        C  0.55543058  0.51880863  0.30480097    -0.28900
C686        C  0.54750061  0.52995023  0.25177029     0.44000
C687        C  0.49597885  0.63803769  0.22096966     0.05200
O688        O  0.51427179  0.61537410  0.32998430    -0.57400
H689        H  0.54984675  0.54024632  0.37116563     0.18100
O690        O  0.55769357  0.50187716  0.22490094    -0.64200
H691        H  0.52188005  0.57624275  0.18412384     0.16600
C692        C  0.50334716  0.67797411  0.19766770     0.28800
C693        C  0.98284029  0.71411899  0.16527321    -0.25100
C694        C  0.95589342  0.71414144  0.16075335    -0.24300
C695        C  0.94846919  0.67361908  0.18380970     0.40300
C696        C  0.96819393  0.63541635  0.21229634    -0.26800
O697        O  0.52984037  0.68080608  0.20333877    -0.58700
H698        H  0.98926321  0.74467969  0.14820153     0.15900
O699        O  0.92259860  0.67211276  0.18097995    -0.60100
H700        H  0.96237530  0.60481024  0.23031094     0.14400
H701        H  0.57634811  0.51680232  0.23487301     0.46200
H702        H  0.54133348  0.69844859  0.23738861     0.41600
H703        H  0.91063331  0.65176009  0.14906669     0.45000
H704        H  0.02654313  0.64528431  0.34179983     0.36500
C705        C  0.71569705  0.51133320  0.46661677    -0.27700
C706        C  0.73793714  0.48491622  0.46618368     0.01900
C707        C  0.73359939  0.43368649  0.44882598     0.30000
C708        C  0.70770917  0.40952690  0.43386500    -0.19500
C709        C  0.68549970  0.43591246  0.43494226    -0.28900
C710        C  0.68973309  0.48780237  0.45073414     0.44000
C711        C  0.76582643  0.51057727  0.48667539     0.05200
O712        O  0.75455052  0.40677134  0.44646966    -0.57400
H713        H  0.70503196  0.37004276  0.42135302     0.18100
O714        O  0.66905611  0.51565507  0.45311223    -0.64200
H715        H  0.71863233  0.55030661  0.48068018     0.16600
C716        C  0.76841490  0.55974267  0.46926121     0.28800
C717        C  0.79480586  0.58379352  0.49091366    -0.25100
C718        C  0.81901249  0.55949914  0.52989848    -0.24300
C719        C  0.81628147  0.51063637  0.54782236     0.40300
C720        C  0.78998695  0.48677156  0.52631315    -0.26800
O721        O  0.74549318  0.58345907  0.42917872    -0.58700
H722        H  0.79645269  0.62080787  0.47587002     0.15900
O723        O  0.83924185  0.48563512  0.58643429    -0.60100
H724        H  0.78843334  0.44962727  0.54124128     0.14400
H725        H  0.65959469  0.53474236  0.41931901     0.46200
H726        H  0.74099964  0.61220643  0.44596776     0.41600
H727        H  0.84093979  0.49786452  0.62017089     0.45000
H728        H  0.75281424  0.41558985  0.41175176     0.36500
C729        C  0.50151765  0.48212756  0.56317824    -0.27700
C730        C  0.00095848  0.50105330  0.51558149     0.01900
C731        C  0.98897011  0.54936418  0.49609339     0.30000
C732        C  0.97658927  0.57659095  0.52085351    -0.19500
C733        C  0.97651158  0.55691126  0.56586297    -0.28900
C734        C  0.98976610  0.50992706  0.58696712     0.44000
C735        C  0.51339886  0.47083828  0.49070880     0.05200
O736        O  0.98870725  0.56983946  0.45229350    -0.57400
H737        H  0.96612855  0.61244396  0.50378298     0.18100
O738        O  0.98954044  0.48912186  0.63021004    -0.64200
H739        H  0.51027235  0.44472211  0.57822199     0.16600
C740        C  0.54024495  0.44904618  0.51993601     0.28800
C741        C  0.55194025  0.42141364  0.49448238    -0.25100
C742        C  0.53794664  0.41647886  0.43919392    -0.24300
C743        C  0.51065120  0.43686351  0.40986923     0.40300
C744        C  0.99792827  0.46129824  0.43422384    -0.26800
O745        O  0.55589252  0.45644670  0.57331964    -0.58700
H746        H  0.57294114  0.40627910  0.51839689     0.15900
O747        O  0.99505583  0.42837010  0.35488731    -0.60100
H748        H  0.97678590  0.47611255  0.41124806     0.14400
H749        H  0.97440287  0.46319604  0.61593270     0.46200
H750        H  0.56629581  0.48871046  0.57737730     0.41600
H751        H  0.98432742  0.39624393  0.34922126     0.45000
H752        H  0.00668894  0.58869483  0.46585529     0.36500
loop_ 
_geom_bond_atom_site_label_1 
_geom_bond_atom_site_label_2 
_geom_bond_distance 
_geom_bond_site_symmetry_2 
_ccdc_geom_bond_type 
O1          Cr19   1.960       .  S
O1            C9   1.255       .  A
O2          Cr19   2.041       .  S
O2            C3   1.274       .  A
C3            O4   1.256       .  A
C3          C285   1.482       .  S
O4          Cr20   1.954       .  S
O5          Cr20   2.041       .  S
O5            C6   1.269       .  A
C6            O7   1.250       .  A
C6          C366   1.483       .  S
O7          Cr21   1.948       .  S
O8          Cr21   2.018       .  S
O8            C9   1.269       .  A
C9          C237   1.492       .  S
O10         Cr19   2.045       .  S
O10          C18   1.276       .  A
O11         Cr19   1.968       .  S
O11          C12   1.260       .  A
C12          O13   1.272       .  A
C12         C261   1.482       .  S
O13         Cr20   2.032       .  S
O14         Cr20   1.957       .  S
O14          C15   1.258       .  A
C15          O16   1.273       .  A
C15         C309   1.479       .  S
O16         Cr21   2.032       .  S
O17         Cr21   1.959       .  S
O17          C18   1.257       .  A
C18         C333   1.498       .  S
Cr19         O22   1.763       .  S
Cr20         O22   1.761       .  S
Cr21         O22   1.757       .  S
O23         Cr41   2.022       .  S
O23          C31   1.269       .  A
O24         Cr41   1.952       .  S
O24          C25   1.251       .  A
C25          O26   1.270       .  A
C25         C174   1.470       .  S
O26         Cr42   2.038       .  S
O27         Cr42   1.947       .  S
O27          C28   1.255       .  A
C28          O29   1.274       .  A
C28         C213   1.484       .  S
O29         Cr43   2.037       .  S
O30         Cr43   1.960       .  S
O30          C31   1.256       .  A
C31         C270   1.489   1_556  S
O32         Cr41   1.953       .  S
O32          C40   1.257       .  A
O33         Cr41   2.042       .  S
O33          C34   1.275       .  A
C34          O35   1.256       .  A
C34         C189   1.489   1_545  S
O35         Cr42   1.958       .  S
O36         Cr42   2.030       .  S
O36          C37   1.271       .  A
C37          O38   1.258       .  A
C37         C246   1.490       .  S
O38         Cr43   1.964       .  S
O39         Cr43   2.042       .  S
O39          C40   1.275       .  A
C40         C141   1.484       .  S
Cr41         O44   1.758       .  S
Cr42         O44   1.761       .  S
Cr43         O44   1.762       .  S
O45         Cr63   2.026       .  S
O45          C53   1.271       .  A
O46         Cr63   1.955       .  S
O46          C47   1.251       .  A
C47          O48   1.269       .  A
C47         C357   1.471       .  S
O48         Cr64   2.036       .  S
O49         Cr64   1.953       .  S
O49          C50   1.256       .  A
C50          O51   1.274       .  A
C50         C198   1.483       .  S
O51         Cr65   2.038       .  S
O52         Cr65   1.952       .  S
O52          C53   1.254       .  A
C53         C126   1.489       .  S
O54         Cr63   1.959       .  S
O54          C62   1.256       .  A
O55         Cr63   2.036       .  S
O55          C56   1.273       .  A
C56          O57   1.258       .  A
C56         C222   1.481       .  S
O57         Cr64   1.957       .  S
O58         Cr64   2.029       .  S
O58          C59   1.271       .  A
C59          O60   1.259       .  A
C59         C102   1.490       .  S
O60         Cr65   1.965       .  S
O61         Cr65   2.045       .  S
O61          C62   1.275       .  A
C62         C342   1.488       .  S
Cr63         O66   1.759       .  S
Cr64         O66   1.760       .  S
Cr65         O66   1.762       .  S
O67         Cr85   1.962       .  S
O67          C75   1.257   1_554  A
O68         Cr85   2.034       .  S
O68          C69   1.272       .  A
C69          O70   1.257       .  A
C69         C318   1.483       .  S
O70         Cr86   1.954       .  S
O71         Cr86   2.040       .  S
O71          C72   1.269       .  A
C72          O73   1.252       .  A
C72         C165   1.483       .  S
O73         Cr87   1.946       .  S
O74         Cr87   2.023   1_556  S
O74          C75   1.270       .  A
C75          C93   1.491       .  S
O76         Cr85   2.039       .  S
O76          C84   1.274       .  A
O77         Cr85   1.971       .  S
O77          C78   1.261       .  A
C78          O79   1.271       .  A
C78         C117   1.477       .  S
O79         Cr86   2.024       .  S
O80         Cr86   1.955       .  S
O80          C81   1.257       .  A
C81          O82   1.272       .  A
C81         C294   1.483   1_565  S
O82         Cr87   2.034       .  S
O83         Cr87   1.958       .  S
O83          C84   1.257       .  A
C84         C150   1.488       .  S
Cr85         O88   1.764       .  S
Cr86         O88   1.758       .  S
Cr87         O88   1.755       .  S
C89          C90   1.404       .  A
C89          C94   1.405       .  A
C89          H99   1.084       .  S
C90          C95   1.482       .  S
C90          C91   1.403       .  A
C91          C92   1.398       .  A
C91          O96   1.372       .  S
C92          C93   1.411       .  A
C92          H97   1.083       .  S
C93          C94   1.413       .  A
C94          O98   1.371       .  S
C95         C100   1.404       .  A
C95         C104   1.404       .  A
O96         H112   0.992       .  S
O98         H109   0.992       .  S
C100        C101   1.399       .  A
C100        O105   1.371       .  S
C101        C102   1.410       .  A
C101        H106   1.083       .  S
C102        C103   1.414       .  A
C103        C104   1.403       .  A
C103        O107   1.372       .  S
C104        H108   1.084       .  S
O105        H110   0.992       .  S
O107        H111   0.992       .  S
C113        C114   1.404       .  A
C113        C118   1.401       .  A
C113        H123   1.083       .  S
C114        C119   1.482       .  S
C114        C115   1.407       .  A
C115        C116   1.399       .  A
C115        O120   1.372       .  S
C116        C117   1.405       .  A
C116        H121   1.084       .  S
C117        C118   1.409       .  A
C118        O122   1.372       .  S
C119        C124   1.403       .  A
C119        C128   1.405       .  A
O120        H136   0.992       .  S
O122        H133   0.991       .  S
C124        C125   1.398       .  A
C124        O129   1.372       .  S
C125        C126   1.411       .  A
C125        H130   1.083       .  S
C126        C127   1.411       .  A
C127        C128   1.404       .  A
C127        O131   1.371       .  S
C128        H132   1.084       .  S
O129        H134   0.992       .  S
O131        H135   0.992       .  S
C137        C138   1.400   1_564  A
C137        C142   1.397   1_564  A
C137        H147   1.084       .  S
C138        C143   1.488   1_546  S
C138        C139   1.413       .  A
C139        C140   1.408       .  A
C139        O144   1.372       .  S
C140        C141   1.404       .  A
C140        H145   1.083       .  S
C141        C142   1.413       .  A
C142        O146   1.372   1_556  S
C143        C148   1.406   1_565  A
C143        C152   1.407   1_554  A
O144        H160   0.992       .  S
O146        H157   0.992       .  S
C148        C149   1.399   1_545  A
C148        O153   1.371       .  S
C149        C150   1.409       .  A
C149        H154   1.084   1_565  S
C150        C151   1.410       .  A
C151        C152   1.405   1_554  A
C151        O155   1.371   1_554  S
C152        H156   1.084       .  S
O153        H158   0.992       .  S
O155        H159   0.991   1_556  S
C161        C538   1.410   1_454  A
C161        C542   1.405   1_455  A
C161        H171   1.083       .  S
C162        C543   1.485   1_565  S
C162        C163   1.406       .  A
C162        C537   1.409   1_556  A
C163        C164   1.389       .  A
C163        O168   1.372       .  S
C164        C165   1.407   1_556  A
C164        H169   1.084       .  S
C165        C166   1.410       .  A
C166        C537   1.405       .  A
C166        O546   1.371       .  S
C167        C538   1.486   1_455  S
C167        C172   1.410   1_565  A
C167        C176   1.407       .  A
O168        H184   0.992       .  S
O170        C542   1.371   1_455  S
O170        H557   0.992       .  S
C172        C173   1.400       .  A
C172        O553   1.373   1_556  S
C173        C174   1.405       .  A
C173        H178   1.084       .  S
C174        C175   1.404       .  A
C175        C176   1.396   1_545  A
C175        O179   1.370   1_545  S
C176        H180   1.083   1_455  S
O177        C548   1.373   1_554  S
O177        H182   0.992       .  S
O179        H183   0.991   1_455  S
H181        O546   0.991       .  S
C185        C186   1.400       .  A
C185        C190   1.402       .  A
C185        H571   1.084       .  S
C186        C191   1.479       .  S
C186        C187   1.406       .  A
C187        C188   1.402       .  A
C187        O192   1.372       .  S
C188        C189   1.406       .  A
C188        H193   1.083       .  S
C189        C190   1.417       .  A
C190        O194   1.373       .  S
C191        C200   1.398       .  A
C191        C572   1.409   1_455  A
O192        H208   0.991       .  S
O194        H205   0.992   1_565  S
H195        C561   1.084       .  S
C196        C197   1.404       .  A
C196        C567   1.409       .  A
C196        O201   1.373       .  S
C197        C198   1.404       .  A
C197        H202   1.083       .  S
C198        C199   1.416       .  A
C199        C576   1.397       .  A
C199        O203   1.372       .  S
C200        C575   1.397   1_455  A
C200        H204   1.084       .  S
O201        H206   0.991       .  S
O203        H207   0.992       .  S
C209        C210   1.405       .  A
C209        C214   1.402       .  A
C209        H219   1.083       .  S
C210        C591   1.477   1_455  S
C210        C587   1.402   1_455  A
C211        C586   1.402       .  A
C211        C588   1.396       .  A
C211        O216   1.372       .  S
C212        C213   1.411       .  A
C212        C587   1.395   1_455  A
C212        H217   1.083       .  S
C213        C214   1.410       .  A
C214        O218   1.371       .  S
C215        C586   1.479       .  S
C215        C220   1.403       .  A
C215        C224   1.405       .  A
O216        H232   0.992       .  S
O218        H229   0.992       .  S
C220        C221   1.397       .  A
C220        O225   1.372       .  S
C221        C222   1.409       .  A
C221        H226   1.084       .  S
C222        C223   1.409       .  A
C223        C224   1.403       .  A
C223        O227   1.372       .  S
C224        H228   1.084       .  S
O225        H230   0.992       .  S
O227        H231   0.992       .  S
C233        C234   1.396       .  A
C233        C238   1.398       .  A
C233        H243   1.084       .  S
C234        C239   1.479       .  S
C234        C235   1.408       .  A
C235        C236   1.405       .  A
C235        O240   1.372       .  S
C236        C237   1.408       .  A
C236        H241   1.083       .  S
C237        C238   1.419       .  A
C238        O242   1.372       .  S
C239        C244   1.407       .  A
C239        C248   1.398       .  A
O240        H256   0.991       .  S
O242        H253   0.993       .  S
C244        C245   1.403       .  A
C244        O249   1.372       .  S
C245        C246   1.408       .  A
C245        H250   1.083       .  S
C246        C247   1.417       .  A
C247        C248   1.399       .  A
C247        O251   1.371       .  S
C248        H252   1.084       .  S
O249        H254   0.992       .  S
O251        H255   0.992       .  S
C257        C258   1.404       .  A
C257        C262   1.401       .  A
C257        H267   1.083       .  S
C258        C263   1.486       .  S
C258        C259   1.409       .  A
C259        C260   1.402       .  A
C259        O264   1.372       .  S
C260        C261   1.406       .  A
C260        H265   1.084       .  S
C261        C262   1.411       .  A
C262        O266   1.372       .  S
C263        C268   1.406       .  A
C263        C272   1.405       .  A
O264        H280   0.991       .  S
O266        H277   0.992       .  S
C268        C269   1.401       .  A
C268        O273   1.372       .  S
C269        C270   1.410       .  A
C269        H274   1.084   1_554  S
C270        C271   1.412       .  A
C271        C272   1.404       .  A
C271        O275   1.371       .  S
C272        H276   1.083       .  S
O273        H278   0.992       .  S
O275        H279   0.992       .  S
C281        C658   1.401       .  A
C281        C662   1.396       .  A
C281        H291   1.083       .  S
C282        C663   1.484   1_455  S
C282        C283   1.410       .  A
C282        C657   1.401       .  A
C283        C284   1.403       .  A
C283        O288   1.371       .  S
C284        C285   1.405       .  A
C284        H289   1.083       .  S
C285        C286   1.414       .  A
C286        C657   1.397       .  A
C286        O290   1.372       .  S
C287        C658   1.483       .  S
C287        C292   1.406       .  A
C287        C296   1.404       .  A
O288        H304   0.991       .  S
O290        H301   0.992       .  S
C292        C293   1.398       .  A
C292        O297   1.372       .  S
C293        C294   1.408       .  A
C293        H298   1.084   1_545  S
C294        C295   1.412       .  A
C295        C296   1.401       .  A
C295        O299   1.371       .  S
C296        H676   1.084       .  S
O297        H302   0.992       .  S
O299        H303   0.992       .  S
H300        C672   1.084       .  S
C305        C306   1.402       .  A
C305        C310   1.396       .  A
C305        H315   1.084       .  S
C306        C311   1.480   1_455  S
C306        C307   1.408       .  A
C307        C308   1.401       .  A
C307        O312   1.372       .  S
C308        C309   1.406       .  A
C308        H313   1.084       .  S
C309        C310   1.411       .  A
C310        O314   1.372       .  S
C311        C316   1.404   1_655  A
C311        C696   1.405       .  A
O312        H704   0.991       .  S
O314        H325   0.991       .  S
C316        C693   1.394   1_455  A
C316        O321   1.372       .  S
C317        C318   1.408       .  A
C317        C692   1.393       .  A
C317        H322   1.083       .  S
C318        C319   1.412       .  A
C319        C320   1.403       .  A
C319        O323   1.371       .  S
C320        C687   1.404       .  A
C320        H324   1.084       .  S
O321        H326   0.992       .  S
O323        H327   0.992       .  S
H328        O688   0.992       .  S
C329        C330   1.401       .  A
C329        C334   1.401       .  A
C329        H339   1.083       .  S
C330        C335   1.495       .  S
C330        C331   1.413       .  A
C331        C332   1.408       .  A
C331        O336   1.371       .  S
C332        C333   1.407       .  A
C332        H337   1.083       .  S
C333        C334   1.419       .  A
C334        O338   1.372       .  S
C335        C340   1.413       .  A
C335        C344   1.403       .  A
O336        H352   0.992       .  S
O338        H349   0.992       .  S
C340        C341   1.408       .  A
C340        O345   1.372       .  S
C341        C342   1.404       .  A
C341        H346   1.083       .  S
C342        C343   1.414       .  A
C343        C344   1.401       .  A
C343        O347   1.372       .  S
C344        H348   1.084       .  S
O345        H350   0.991       .  S
O347        H351   0.992       .  S
C353        C730   1.405       .  A
C353        C734   1.398   1_455  A
C353        H363   1.083       .  S
C354        C735   1.486       .  S
C354        C355   1.410       .  A
C354        C729   1.406       .  A
C355        C356   1.398       .  A
C355        O360   1.372       .  S
C356        C357   1.405       .  A
C356        H361   1.084       .  S
C357        C358   1.406       .  A
C358        C729   1.399       .  A
C358        O362   1.372       .  S
C359        C730   1.483       .  S
C359        C364   1.405       .  A
C359        C744   1.408   1_455  A
O360        H376   0.992       .  S
O362        H373   0.991       .  S
C364        C365   1.391       .  A
C364        O369   1.372       .  S
C365        C366   1.409       .  A
C365        H370   1.084       .  S
C366        C367   1.410       .  A
C367        C744   1.404   1_455  A
C367        O747   1.371   1_455  S
C368        C735   1.409       .  A
C368        C743   1.405       .  A
C368        H372   1.083       .  S
O369        H374   0.992       .  S
O371        C743   1.371       .  S
O371        H375   0.991       .  S
O377       Cr395   1.960       .  S
O377        C385   1.255       .  A
O378       Cr395   2.038       .  S
O378        C379   1.274       .  A
C379        O380   1.256       .  A
C379        C661   1.481       .  S
O380       Cr396   1.954       .  S
O381       Cr396   2.042       .  S
O381        C382   1.270       .  A
C382        O383   1.251       .  A
C382        C742   1.484       .  S
O383       Cr397   1.948       .  S
O384       Cr397   2.018       .  S
O384        C385   1.269       .  A
C385        C613   1.492       .  S
O386       Cr395   2.043       .  S
O386        C394   1.275       .  A
O387       Cr395   1.969       .  S
O387        C388   1.260       .  A
C388        O389   1.272       .  A
C388        C637   1.483       .  S
O389       Cr396   2.032       .  S
O390       Cr396   1.957       .  S
O390        C391   1.258       .  A
C391        O392   1.272       .  A
C391        C685   1.477       .  S
O392       Cr397   2.030       .  S
O393       Cr397   1.959       .  S
O393        C394   1.257       .  A
C394        C709   1.496       .  S
Cr395       O398   1.764       .  S
Cr396       O398   1.761       .  S
Cr397       O398   1.757       .  S
O399       Cr417   2.021       .  S
O399        C407   1.269       .  A
O400       Cr417   1.950       .  S
O400        C401   1.250       .  A
C401        O402   1.270       .  A
C401        C550   1.469       .  S
O402       Cr418   2.038       .  S
O403       Cr418   1.947       .  S
O403        C404   1.255       .  A
C404        O405   1.274       .  A
C404        C589   1.485       .  S
O405       Cr419   2.038       .  S
O406       Cr419   1.962       .  S
O406        C407   1.256       .  A
C407        C646   1.490   1_556  S
O408       Cr417   1.952       .  S
O408        C416   1.258       .  A
O409       Cr417   2.043       .  S
O409        C410   1.275       .  A
C410        O411   1.256       .  A
C410        C565   1.489   1_545  S
O411       Cr418   1.958       .  S
O412       Cr418   2.031       .  S
O412        C413   1.272       .  A
C413        O414   1.258       .  A
C413        C622   1.490       .  S
O414       Cr419   1.965       .  S
O415       Cr419   2.043       .  S
O415        C416   1.276       .  A
C416        C517   1.484       .  S
Cr417       O420   1.759       .  S
Cr418       O420   1.761       .  S
Cr419       O420   1.761       .  S
O421       Cr439   2.025       .  S
O421        C429   1.270       .  A
O422       Cr439   1.955       .  S
O422        C423   1.251       .  A
C423        O424   1.269       .  A
C423        C733   1.469       .  S
O424       Cr440   2.034       .  S
O425       Cr440   1.951       .  S
O425        C426   1.256       .  A
C426        O427   1.275       .  A
C426        C574   1.485       .  S
O427       Cr441   2.041       .  S
O428       Cr441   1.953       .  S
O428        C429   1.254       .  A
C429        C502   1.489       .  S
O430       Cr439   1.957       .  S
O430        C438   1.256       .  A
O431       Cr439   2.033       .  S
O431        C432   1.273       .  A
C432        O433   1.258       .  A
C432        C598   1.481       .  S
O433       Cr440   1.958       .  S
O434       Cr440   2.029       .  S
O434        C435   1.271       .  A
C435        O436   1.259       .  A
C435        C478   1.489       .  S
O436       Cr441   1.965       .  S
O437       Cr441   2.045       .  S
O437        C438   1.276       .  A
C438        C718   1.488       .  S
Cr439       O442   1.759       .  S
Cr440       O442   1.760       .  S
Cr441       O442   1.762       .  S
O443       Cr461   1.968       .  S
O443        C451   1.258   1_554  A
O444       Cr461   2.037       .  S
O444        C445   1.272       .  A
C445        O446   1.256       .  A
C445        C694   1.485       .  S
O446       Cr462   1.955       .  S
O447       Cr462   2.039       .  S
O447        C448   1.270       .  A
C448        O449   1.252       .  A
C448        C541   1.482       .  S
O449       Cr463   1.945       .  S
O450       Cr463   2.017   1_556  S
O450        C451   1.269       .  A
C451        C469   1.488       .  S
O452       Cr461   2.041       .  S
O452        C460   1.275       .  A
O453       Cr461   1.970       .  S
O453        C454   1.261       .  A
C454        O455   1.272       .  A
C454        C493   1.477       .  S
O455       Cr462   2.025       .  S
O456       Cr462   1.959       .  S
O456        C457   1.257       .  A
C457        O458   1.271       .  A
C457        C670   1.484   1_565  S
O458       Cr463   2.030       .  S
O459       Cr463   1.958       .  S
O459        C460   1.258       .  A
C460        C526   1.488       .  S
Cr461       O464   1.765       .  S
Cr462       O464   1.758       .  S
Cr463       O464   1.755       .  S
C465        C466   1.402       .  A
C465        C470   1.403       .  A
C465        H475   1.084       .  S
C466        C471   1.477       .  S
C466        C467   1.403       .  A
C467        C468   1.400       .  A
C467        O472   1.372       .  S
C468        C469   1.409       .  A
C468        H473   1.083       .  S
C469        C470   1.414       .  A
C470        O474   1.371       .  S
C471        C476   1.403       .  A
C471        C480   1.402       .  A
O472        H488   0.992       .  S
O474        H485   0.992       .  S
C476        C477   1.400       .  A
C476        O481   1.371       .  S
C477        C478   1.409       .  A
C477        H482   1.083       .  S
C478        C479   1.414       .  A
C479        C480   1.403       .  A
C479        O483   1.372       .  S
C480        H484   1.084       .  S
O481        H486   0.991       .  S
O483        H487   0.992       .  S
C489        C490   1.404       .  A
C489        C494   1.401       .  A
C489        H499   1.084       .  S
C490        C495   1.480       .  S
C490        C491   1.406       .  A
C491        C492   1.399       .  A
C491        O496   1.372       .  S
C492        C493   1.405       .  A
C492        H497   1.084       .  S
C493        C494   1.410       .  A
C494        O498   1.372       .  S
C495        C500   1.402       .  A
C495        C504   1.405       .  A
O496        H512   0.992       .  S
O498        H509   0.992       .  S
C500        C501   1.397       .  A
C500        O505   1.372       .  S
C501        C502   1.411       .  A
C501        H506   1.083       .  S
C502        C503   1.412       .  A
C503        C504   1.404       .  A
C503        O507   1.371       .  S
C504        H508   1.084       .  S
O505        H510   0.992       .  S
O507        H511   0.992       .  S
C513        C514   1.400   1_564  A
C513        C518   1.398   1_564  A
C513        H523   1.084       .  S
C514        C519   1.487   1_546  S
C514        C515   1.412       .  A
C515        C516   1.408       .  A
C515        O520   1.372       .  S
C516        C517   1.404       .  A
C516        H521   1.083       .  S
C517        C518   1.414       .  A
C518        O522   1.372   1_546  S
C519        C524   1.406   1_565  A
C519        C528   1.407   1_554  A
O520        H536   0.992       .  S
O522        H533   0.992   1_565  S
C524        C525   1.400   1_545  A
C524        O529   1.371       .  S
C525        C526   1.409       .  A
C525        H530   1.084   1_565  S
C526        C527   1.410       .  A
C527        C528   1.405   1_554  A
C527        O531   1.371   1_554  S
C528        H532   1.084       .  S
O529        H534   0.992       .  S
O531        H535   0.991   1_556  S
C537        H547   1.083       .  S
C538        C539   1.406       .  A
C539        C540   1.389       .  A
C539        O544   1.372       .  S
C540        C541   1.407   1_556  A
C540        H545   1.083       .  S
C541        C542   1.410       .  A
C543        C548   1.409       .  A
C543        C552   1.407   1_545  A
O544        H560   0.992       .  S
C548        C549   1.400       .  A
C549        C550   1.405       .  A
C549        H554   1.084       .  S
C550        C551   1.404       .  A
C551        C552   1.396   1_545  A
C551        O555   1.369   1_545  S
C552        H556   1.083       .  S
O553        H558   0.992       .  S
O555        H559   0.992       .  S
C561        C562   1.400       .  A
C561        C566   1.402       .  A
C562        C567   1.480       .  S
C562        C563   1.406       .  A
C563        C564   1.402       .  A
C563        O568   1.372       .  S
C564        C565   1.406       .  A
C564        H569   1.083       .  S
C565        C566   1.417       .  A
C566        O570   1.372       .  S
C567        C576   1.398       .  A
O568        H584   0.991       .  S
O570        H581   0.992   1_565  S
C572        C573   1.405       .  A
C572        O577   1.372       .  S
C573        C574   1.405       .  A
C573        H578   1.083       .  S
C574        C575   1.417       .  A
C575        O579   1.372       .  S
C576        H580   1.084       .  S
O577        H582   0.991       .  S
O579        H583   0.992       .  S
C585        C586   1.405       .  A
C585        C590   1.402       .  A
C585        H595   1.083       .  S
C587        O592   1.372       .  S
C588        C589   1.411       .  A
C588        H593   1.083       .  S
C589        C590   1.410       .  A
C590        O594   1.371       .  S
C591        C596   1.403       .  A
C591        C600   1.405       .  A
O592        H608   0.992       .  S
O594        H605   0.992       .  S
C596        C597   1.397       .  A
C596        O601   1.372   1_655  S
C597        C598   1.409       .  A
C597        H602   1.083       .  S
C598        C599   1.409       .  A
C599        C600   1.402       .  A
C599        O603   1.372       .  S
C600        H604   1.084       .  S
O601        H606   0.992       .  S
O603        H607   0.992       .  S
C609        C610   1.396       .  A
C609        C614   1.398       .  A
C609        H619   1.084       .  S
C610        C615   1.480       .  S
C610        C611   1.408       .  A
C611        C612   1.406       .  A
C611        O616   1.372       .  S
C612        C613   1.408       .  A
C612        H617   1.083       .  S
C613        C614   1.419       .  A
C614        O618   1.372       .  S
C615        C620   1.407       .  A
C615        C624   1.399       .  A
O616        H632   0.991       .  S
O618        H629   0.992       .  S
C620        C621   1.403       .  A
C620        O625   1.372       .  S
C621        C622   1.408       .  A
C621        H626   1.083       .  S
C622        C623   1.417       .  A
C623        C624   1.400       .  A
C623        O627   1.372       .  S
C624        H628   1.084       .  S
O625        H630   0.991       .  S
O627        H631   0.992       .  S
C633        C634   1.404       .  A
C633        C638   1.401       .  A
C633        H643   1.083       .  S
C634        C639   1.486       .  S
C634        C635   1.409       .  A
C635        C636   1.402       .  A
C635        O640   1.372       .  S
C636        C637   1.406       .  A
C636        H641   1.084       .  S
C637        C638   1.411       .  A
C638        O642   1.372       .  S
C639        C644   1.405       .  A
C639        C648   1.405       .  A
O640        H656   0.991       .  S
O642        H653   0.992       .  S
C644        C645   1.401       .  A
C644        O649   1.372       .  S
C645        C646   1.410       .  A
C645        H650   1.083   1_554  S
C646        C647   1.412       .  A
C647        C648   1.404       .  A
C647        O651   1.371       .  S
C648        H652   1.084       .  S
O649        H654   0.992       .  S
O651        H655   0.992       .  S
C657        H667   1.083   1_455  S
C658        C659   1.410       .  A
C659        C660   1.402       .  A
C659        O664   1.371       .  S
C660        C661   1.405       .  A
C660        H665   1.083       .  S
C661        C662   1.414       .  A
C662        O666   1.372       .  S
C663        C668   1.406       .  A
C663        C672   1.404       .  A
O664        H680   0.991       .  S
O666        H677   0.992       .  S
C668        C669   1.398       .  A
C668        O673   1.372       .  S
C669        C670   1.407       .  A
C669        H674   1.084   1_545  S
C670        C671   1.413       .  A
C671        C672   1.402       .  A
C671        O675   1.371       .  S
O673        H678   0.992       .  S
O675        H679   0.992       .  S
C681        C682   1.402       .  A
C681        C686   1.396       .  A
C681        H691   1.084       .  S
C682        C687   1.478       .  S
C682        C683   1.407       .  A
C683        C684   1.400       .  A
C683        O688   1.372       .  S
C684        C685   1.406       .  A
C684        H689   1.084       .  S
C685        C686   1.411       .  A
C686        O690   1.372       .  S
C687        C692   1.404       .  A
O690        H701   0.991       .  S
C692        O697   1.372       .  S
C693        C694   1.408       .  A
C693        H698   1.083       .  S
C694        C695   1.412       .  A
C695        C696   1.404       .  A
C695        O699   1.371       .  S
C696        H700   1.084       .  S
O697        H702   0.992       .  S
O699        H703   0.991       .  S
C705        C706   1.401       .  A
C705        C710   1.399       .  A
C705        H715   1.083       .  S
C706        C711   1.495       .  S
C706        C707   1.414       .  A
C707        C708   1.408       .  A
C707        O712   1.371       .  S
C708        C709   1.407       .  A
C708        H713   1.083       .  S
C709        C710   1.418       .  A
C710        O714   1.372       .  S
C711        C716   1.414       .  A
C711        C720   1.403       .  A
O712        H728   0.992       .  S
O714        H725   0.992       .  S
C716        C717   1.407       .  A
C716        O721   1.372       .  S
C717        C718   1.403       .  A
C717        H722   1.083       .  S
C718        C719   1.415       .  A
C719        C720   1.401       .  A
C719        O723   1.372       .  S
C720        H724   1.084       .  S
O721        H726   0.991       .  S
O723        H727   0.992       .  S
C729        H739   1.083       .  S
C730        C731   1.409   1_455  A
C731        C732   1.398       .  A
C731        O736   1.372       .  S
C732        C733   1.405       .  A
C732        H737   1.084       .  S
C733        C734   1.406       .  A
C734        O738   1.372       .  S
C735        C740   1.405       .  A
O736        H752   0.992   1_655  S
O738        H749   0.991       .  S
C740        C741   1.392       .  A
C740        O745   1.372       .  S
C741        C742   1.409       .  A
C741        H746   1.084       .  S
C742        C743   1.410       .  A
C744        H748   1.083       .  S
O745        H750   0.992       .  S
O747        H751   0.991       .  S
