geometry optimzed in LAMMPS
_audit_creation_date              2020-12-01 
_audit_creation_method            'lammps2cif' 
_symmetry_space_group_name_H-M    'P1' 
_symmetry_Int_Tables_number       1 
_symmetry_cell_setting            triclinic 
loop_ 
_symmetry_equiv_pos_as_xyz 
  x,y,z 
_cell_length_a                    27.84181895 
_cell_length_b                    44.91604747842416 
_cell_length_c                    28.355587542435376 
_cell_angle_alpha                 90.08426988859405 
_cell_angle_beta                  89.6780827745422 
_cell_angle_gamma                 89.68016881655538 
loop_ 
_atom_site_label 
_atom_site_type_symbol 
_atom_site_fract_x 
_atom_site_fract_y 
_atom_site_fract_z 
_atom_site_charge 
O1          O  0.78076211  0.71099066  0.01825776    -0.82300
C2          C  0.88424010  0.64812542  0.88009850     0.97100
O3          O  0.89175188  0.64635772  0.92404792    -0.71400
O4          O  0.90774094  0.69700253  0.96535551    -0.75000
Al5        Al  0.86295667  0.66614383  0.97737621     1.49000
C6          C  0.90172664  0.72442022  0.97229828     0.92400
O7          O  0.81406824  0.73381651  0.89578313    -0.81200
O8          O  0.72497965  0.66784754  0.92882071    -0.74700
Al9        Al  0.79855502  0.72061828  0.95676001     1.90100
O10         O  0.77652455  0.69770212  0.85896648    -0.73800
O11         O  0.79079434  0.62451271  0.92667004    -0.73700
O12         O  0.84441546  0.65737490  0.86469495    -0.79300
O13         O  0.82568891  0.63264464  0.99404500    -0.77500
O14         O  0.81631083  0.68325455  0.94423977    -1.13700
O15         O  0.84266793  0.68300134  0.03710717    -0.72900
C16         C  0.80549508  0.69778713  0.04880104     0.97900
C17         C  0.79443374  0.72357407  0.85937771     0.94300
Al18       Al  0.78655255  0.66339939  0.89856686     1.55600
O19         O  0.85984419  0.73486619  0.97619630    -0.77500
C20         C  0.80373188  0.61540304  0.96672414     0.98400
C21         C  0.70679612  0.69297767  0.93866320     0.93300
O22         O  0.73278956  0.71582596  0.94079099    -0.82800
O23         O  0.79361416  0.29923836  0.99132891    -0.82300
C24         C  0.88276989  0.36137706  0.13679321     0.97100
O25         O  0.89507756  0.36342197  0.09372836    -0.71400
O26         O  0.91485418  0.31357054  0.05095559    -0.75000
Al27       Al  0.87089743  0.34476757  0.03730816     1.49000
C28         C  0.90996128  0.28612392  0.04428289     0.92400
O29         O  0.81579963  0.27791787  0.11659566    -0.81200
O30         O  0.72920716  0.34386003  0.07412961    -0.74700
Al31       Al  0.80560699  0.29033123  0.05400364     1.90100
O32         O  0.77241770  0.31362635  0.14837209    -0.73800
O33         O  0.79411601  0.38671915  0.08303380    -0.73700
O34         O  0.84108371  0.35306033  0.14832957    -0.79300
O35         O  0.83603066  0.37911580  0.01898173    -0.77500
O36         O  0.82152068  0.32779842  0.06681215    -1.13700
O37         O  0.85477948  0.32856080  0.97571779    -0.72900
C38         C  0.81932997  0.31306583  0.96222220     0.97900
C39         C  0.79154267  0.28800170  0.15073164     0.94300
Al40       Al  0.78706431  0.34778995  0.10976435     1.55600
O41         O  0.86852313  0.27554788  0.03956684    -0.77500
C42         C  0.81175767  0.39622373  0.04499201     0.98400
C43         C  0.71208922  0.31867454  0.06395182     0.93300
O44         O  0.73831582  0.29564515  0.06430168    -0.82800
O45         O  0.29333179  0.21018214  0.01879204    -0.82300
C46         C  0.39111140  0.14511062  0.87890913     0.97100
O47         O  0.40158122  0.14506772  0.92240571    -0.71400
O48         O  0.41740022  0.19662467  0.96090706    -0.75000
Al49       Al  0.37470583  0.16533601  0.97652091     1.49000
C50         C  0.41063031  0.22406548  0.96666481     0.92400
O51         O  0.31923282  0.23048450  0.89333219    -0.81200
O52         O  0.23387484  0.16473962  0.93603393    -0.74700
Al53       Al  0.30729802  0.21865537  0.95602734     1.90100
O54         O  0.28089495  0.19314641  0.86087285    -0.73800
O55         O  0.29979801  0.12212113  0.93300971    -0.73700
O56         O  0.34978676  0.15311323  0.86556719    -0.79300
O57         O  0.34019729  0.13142359  0.99686119    -0.77500
O58         O  0.32560343  0.18115648  0.94495628    -1.13700
O59         O  0.35636153  0.18290437  0.03673045    -0.72900
C60         C  0.31902479  0.19735952  0.04908194     0.97900
C61         C  0.29870291  0.21903329  0.85825272     0.94300
Al62       Al  0.29368856  0.15994576  0.90240188     1.55600
O63         O  0.36866198  0.23406612  0.97148802    -0.77500
C64         C  0.31519368  0.11395578  0.97267947     0.98400
C65         C  0.21567385  0.18981396  0.94601206     0.93300
O66         O  0.24071885  0.21303248  0.94408456    -0.82800
O67         O  0.28612018  0.79935494  0.99444710    -0.82300
C68         C  0.37887369  0.85820290  0.14234413     0.97100
O69         O  0.39083311  0.85997038  0.09918171    -0.71400
O70         O  0.40727994  0.81035971  0.05498601    -0.75000
Al71       Al  0.36546237  0.84268877  0.04249016     1.49000
C72         C  0.40071274  0.78318731  0.04715314     0.92400
O73         O  0.30516992  0.77627982  0.12020339    -0.81200
O74         O  0.22337865  0.84459241  0.07902179    -0.74700
Al75       Al  0.29670245  0.78959125  0.05748678     1.90100
O76         O  0.26517205  0.81332953  0.15234032    -0.73800
O77         O  0.29112593  0.88588813  0.08902606    -0.73700
O78         O  0.33657167  0.85102007  0.15388782    -0.79300
O79         O  0.33277984  0.87805642  0.02514411    -0.77500
O80         O  0.31499947  0.82656697  0.07141303    -1.13700
O81         O  0.34880838  0.82771646  0.98070096    -0.72900
C82         C  0.31330104  0.81281419  0.96603676     0.97900
C83         C  0.28223073  0.78723140  0.15461428     0.94300
Al84       Al  0.28182909  0.84706976  0.11478070     1.55600
O85         O  0.35868649  0.77345926  0.04310855    -0.77500
C86         C  0.30928692  0.89545944  0.05130997     0.98400
C87         C  0.20492514  0.81993888  0.06757692     0.93300
O88         O  0.22974844  0.79636984  0.06723302    -0.82800
O89         O  0.25303712  0.29987970  0.51863350    -0.82300
C90         C  0.14571322  0.35906761  0.38013821     0.97100
O91         O  0.13772629  0.36098202  0.42408304    -0.71400
O92         O  0.12629132  0.31042031  0.46647225    -0.75000
Al93       Al  0.16801266  0.34280309  0.47774273     1.49000
C94         C  0.13427342  0.28320619  0.47316921     0.92400
O95         O  0.22260532  0.27676098  0.39482569    -0.81200
O96         O  0.30641754  0.34523686  0.42946014    -0.74700
Al97       Al  0.23677101  0.29008451  0.45658975     1.90100
O98         O  0.25872369  0.31385288  0.35942902    -0.73800
O99         O  0.23723199  0.38639045  0.42656625    -0.73700
O100        O  0.18686299  0.35161289  0.36495937    -0.79300
O101        O  0.20164951  0.37808661  0.49383659    -0.77500
O102        O  0.21634192  0.32702284  0.44464940    -1.13700
O103        O  0.18952952  0.32690036  0.53745850    -0.72900
C104        C  0.22669115  0.31225577  0.54923511     0.97900
C105        C  0.24162530  0.28780292  0.35839124     0.94300
Al106      Al  0.24497099  0.34767783  0.39897548     1.55600
O107        O  0.17672287  0.27377812  0.47621376    -0.77500
C108        C  0.22261264  0.39565805  0.46610452     0.98400
C109        C  0.32634370  0.32059843  0.43891150     0.93300
O110        O  0.30225247  0.29695121  0.44070159    -0.82800
O111        O  0.23851736  0.71127286  0.49517479    -0.82300
C112        C  0.14968097  0.64863328  0.64026920     0.97100
O113        O  0.13811768  0.64568707  0.59737814    -0.71400
O114        O  0.11844943  0.69694907  0.55856278    -0.75000
Al115      Al  0.16167173  0.66576601  0.54189516     1.49000
C116        C  0.12411716  0.72442858  0.55238363     0.92400
O117        O  0.22046243  0.73172776  0.62247142    -0.81200
O118        O  0.30429009  0.66522544  0.57671750    -0.74700
Al119      Al  0.22849867  0.71960020  0.55885331     1.90100
O120        O  0.26183697  0.69466259  0.65199215    -0.73800
O121        O  0.23761019  0.62315859  0.58437516    -0.73700
O122        O  0.19131561  0.65676727  0.65181783    -0.79300
O123        O  0.19697123  0.63194486  0.52051872    -0.77500
O124        O  0.21178633  0.68220272  0.57090408    -1.13700
O125        O  0.17571965  0.68310792  0.48122822    -0.72900
C126        C  0.21104697  0.69829205  0.46679738     0.97900
C127        C  0.24401224  0.72048019  0.65594969     0.94300
Al128      Al  0.24580521  0.66147585  0.61265967     1.55600
O129        O  0.16573444  0.73473309  0.54731418    -0.77500
C130        C  0.22206453  0.61454699  0.54505447     0.98400
C131        C  0.32189575  0.69042511  0.56705182     0.93300
O132        O  0.29566030  0.71343847  0.56660643    -0.82800
O133        O  0.74855997  0.21180713  0.49192511    -0.82300
C134        C  0.65167148  0.14955752  0.63302627     0.97100
O135        O  0.64029105  0.14825122  0.58980581    -0.71400
O136        O  0.62496950  0.19817720  0.54638593    -0.75000
Al137      Al  0.66819130  0.16642122  0.53442081     1.49000
C138        C  0.63075305  0.22557933  0.54027935     0.92400
O139        O  0.72216079  0.23191014  0.61794795    -0.81200
O140        O  0.80919472  0.16601464  0.57494408    -0.74700
Al141      Al  0.73426610  0.22017997  0.55479762     1.90100
O142        O  0.76301366  0.19505032  0.64905052    -0.73800
O143        O  0.74322134  0.12342354  0.58009389    -0.73700
O144        O  0.69370599  0.15623436  0.64556288    -0.79300
O145        O  0.70163942  0.13141898  0.51665765    -0.77500
O146        O  0.71697500  0.18261150  0.56575282    -1.13700
O147        O  0.68851505  0.18219364  0.47402217    -0.72900
C148        C  0.72473175  0.19754736  0.46190705     0.97900
C149        C  0.74509724  0.22095577  0.65210634     0.94300
Al150      Al  0.74948667  0.16175953  0.60866938     1.55600
O151        O  0.67256453  0.23588075  0.53869991    -0.77500
C152        C  0.72617917  0.11423878  0.54182001     0.98400
C153        C  0.82699918  0.19132042  0.56646406     0.93300
O154        O  0.80081132  0.21433406  0.56684195    -0.82800
O155        O  0.74576051  0.79965689  0.52468330    -0.82300
C156        C  0.64703185  0.85723328  0.37924695     0.97100
O157        O  0.63600546  0.85960063  0.42251814    -0.71400
O158        O  0.62176572  0.80907099  0.46534706    -0.75000
Al159      Al  0.66289826  0.84172697  0.47817658     1.49000
C160        C  0.62964861  0.78203322  0.47412147     0.92400
O161        O  0.72200965  0.77520482  0.40023822    -0.81200
O162        O  0.80428528  0.84353595  0.43776346    -0.74700
Al163      Al  0.73297049  0.78898228  0.46220709     1.90100
O164        O  0.76009772  0.81187575  0.36581298    -0.73800
O165        O  0.73617971  0.88464012  0.43094461    -0.73700
O166        O  0.68904872  0.84987904  0.36682631    -0.79300
O167        O  0.69574468  0.87704567  0.49563809    -0.77500
O168        O  0.71327904  0.82572045  0.44830857    -1.13700
O169        O  0.68064042  0.82638380  0.53924620    -0.72900
C170        C  0.71769822  0.81253129  0.55326818     0.97900
C171        C  0.74259056  0.78592443  0.36442615     0.94300
Al172      Al  0.74478687  0.84594899  0.40406549     1.55600
O173        O  0.67209016  0.77299732  0.47898364    -0.77500
C174        C  0.71982821  0.89414362  0.46968552     0.98400
C175        C  0.82357048  0.81897829  0.44863312     0.93300
O176        O  0.79930424  0.79540007  0.44952238    -0.82800
C177        C  0.73156910  0.08249150  0.52785734    -0.20300
C178        C  0.77324123  0.06553640  0.53794153     0.35900
C179        C  0.77421147  0.03487075  0.52709867    -0.26300
C180        C  0.73421591  0.02084588  0.50725651     0.02300
C181        C  0.69328197  0.03785687  0.49590165     0.27100
C182        C  0.69247595  0.06849402  0.50601675    -0.25400
N183        N  0.81467055  0.07948717  0.55817476    -0.82800
H184        H  0.80578654  0.02166886  0.53519707     0.12900
C185        C  0.73464006  0.98813450  0.49969387     0.02300
N186        N  0.65236382  0.02375435  0.47492532    -0.81400
H187        H  0.66043379  0.08133942  0.49820899     0.17800
C188        C  0.70972136  0.96987604  0.53137609    -0.26200
C189        C  0.70615995  0.93895380  0.52390402     0.35800
C190        C  0.72746648  0.92600753  0.48312180    -0.20300
C191        C  0.75390636  0.94447012  0.45238972    -0.25500
C192        C  0.75743791  0.97534503  0.46013608     0.27200
H193        H  0.69245660  0.97994756  0.56185998     0.12900
N194        N  0.68008230  0.92098123  0.55711922    -0.82800
H195        H  0.77078604  0.93498473  0.42126897     0.17800
N196        N  0.78316312  0.99388834  0.42745717    -0.81400
H197        H  0.66508108  0.93418051  0.58386133     0.33400
H198        H  0.70488054  0.90685878  0.57346550     0.37900
H199        H  0.79813380  0.98105604  0.40025838     0.33400
H200        H  0.75828301  0.00825351  0.41176654     0.30100
H201        H  0.62488392  0.03927282  0.46923015     0.33400
H202        H  0.66291050  0.01586995  0.44171136     0.30100
H203        H  0.80633365  0.08476751  0.59318160     0.37900
H204        H  0.84342486  0.06444749  0.55955269     0.33400
C205        C  0.37354329  0.69457125  0.55737484    -0.20300
C206        C  0.39727439  0.71884954  0.57840216     0.35900
C207        C  0.44222944  0.72754853  0.56118950    -0.26300
C208        C  0.46405841  0.71255404  0.52341113     0.02300
C209        C  0.44234405  0.68686361  0.50460894     0.27100
C210        C  0.39700183  0.67794188  0.52203438    -0.25400
N211        N  0.37451793  0.73533778  0.61599223    -0.82800
H212        H  0.45951826  0.74700556  0.57590508     0.12900
C213        C  0.50703127  0.72645371  0.50196794     0.02300
N214        N  0.46552986  0.67069297  0.46704130    -0.81400
H215        H  0.37864335  0.65933170  0.50595622     0.17800
C216        C  0.55290611  0.71615057  0.51377892    -0.26200
C217        C  0.59399606  0.73316318  0.50337988     0.35800
C218        C  0.58872929  0.76114290  0.48055832    -0.20300
C219        C  0.54275753  0.77017972  0.46594069    -0.25500
C220        C  0.50199252  0.75307984  0.47627627     0.27200
H221        H  0.55637041  0.69566122  0.53363260     0.12900
N222        N  0.64049175  0.72259124  0.51780030    -0.82800
H223        H  0.53832325  0.79113322  0.44754765     0.17800
N224        N  0.45500559  0.76322610  0.46266277    -0.81400
H225        H  0.63808512  0.70117470  0.53199720     0.33400
H226        H  0.65216011  0.73636695  0.54513494     0.37900
H227        H  0.45722771  0.78338355  0.44441603     0.33400
H228        H  0.44117268  0.74761342  0.43902958     0.30100
H229        H  0.44485539  0.65235094  0.45726544     0.33400
H230        H  0.46710368  0.68470948  0.43767799     0.30100
H231        H  0.37051515  0.72091919  0.64464746     0.37900
H232        H  0.39646933  0.75272672  0.62729824     0.33400
C233        C  0.08194276  0.74466037  0.54750327    -0.20300
C234        C  0.03455318  0.73495763  0.55626898     0.35900
C235        C  0.99561463  0.75286124  0.54265081    -0.26300
C236        C  0.00299584  0.78044736  0.52084356     0.02300
C237        C  0.04988871  0.79140540  0.51550061     0.27100
C238        C  0.08896620  0.77349126  0.52918187    -0.25400
N239        N  0.02563542  0.70671962  0.57794472    -0.82800
H240        H  0.95937416  0.74460355  0.54722281     0.12900
C241        C  0.96173421  0.79527067  0.49805003     0.02300
N242        N  0.05762192  0.82019801  0.49481430    -0.81400
H243        H  0.12507062  0.78152641  0.52305067     0.17800
C244        C  0.93551846  0.81740196  0.52202926    -0.26200
C245        C  0.89180179  0.82816408  0.50369136     0.35800
C246        C  0.87458254  0.81640196  0.46093765    -0.20300
C247        C  0.90246948  0.79568051  0.43572224    -0.25500
C248        C  0.94607416  0.78508813  0.45376597     0.27200
H249        H  0.94792136  0.82510041  0.55605658     0.12900
N250        N  0.86297616  0.84905896  0.52999965    -0.82800
H251        H  0.88864380  0.78639931  0.40322553     0.17800
N252        N  0.97326208  0.76273224  0.42872469    -0.81400
H253        H  0.88001226  0.85481046  0.56146286     0.33400
H254        H  0.86042516  0.86853652  0.51001256     0.37900
H255        H  0.95631062  0.75714570  0.39713797     0.33400
H256        H  0.00634001  0.77203174  0.41950550     0.30100
H257        H  0.09427731  0.82510439  0.49377251     0.33400
H258        H  0.04615212  0.81928869  0.45980243     0.30100
H259        H  0.00495410  0.69399688  0.55486539     0.37900
H260        H  0.00544953  0.71040403  0.60862873     0.33400
C261        C  0.58797495  0.24508543  0.53207023    -0.20300
C262        C  0.59153507  0.27627240  0.52487905     0.35900
C263        C  0.55072148  0.29254886  0.51039195    -0.26300
C264        C  0.50655053  0.27845227  0.50353743     0.02300
C265        C  0.50215571  0.24788955  0.51356033     0.27100
C266        C  0.54273877  0.23156923  0.52757015    -0.25400
N267        N  0.63651055  0.29126587  0.53127616    -0.82800
H268        H  0.55358314  0.31616714  0.50325280     0.12900
C269        C  0.46534656  0.29512598  0.48341132     0.02300
N270        N  0.45650763  0.23343620  0.50842419    -0.81400
H271        H  0.53909606  0.20788118  0.53361426     0.17800
C272        C  0.44952758  0.28738030  0.43819070    -0.26200
C273        C  0.40592409  0.29837672  0.42085226     0.35800
C274        C  0.37795894  0.31789570  0.44859341    -0.20300
C275        C  0.39541910  0.32754727  0.49230971    -0.25500
C276        C  0.43888515  0.31607579  0.51029044     0.27200
H277        H  0.46982280  0.27138015  0.41735874     0.12900
N278        N  0.38859698  0.28840322  0.37606682    -0.82800
H279        H  0.37313902  0.34191490  0.51414885     0.17800
N280        N  0.45477409  0.32423121  0.55665255    -0.81400
H281        H  0.41417698  0.29385448  0.35040983     0.33400
H282        H  0.38574332  0.26521232  0.37712271     0.37900
H283        H  0.43117272  0.33975701  0.57179976     0.33400
H284        H  0.45328150  0.30519096  0.57777286     0.30100
H285        H  0.45931512  0.21080958  0.51667344     0.33400
H286        H  0.43291852  0.24284143  0.53317161     0.30100
H287        H  0.64508774  0.28995533  0.56707019     0.37900
H288        H  0.63309883  0.31391877  0.52343653     0.33400
C289        C  0.87856962  0.19563315  0.55650878    -0.20300
C290        C  0.90403857  0.17838738  0.52293740     0.35900
C291        C  0.94966831  0.18805658  0.50740542    -0.26300
C292        C  0.96956083  0.21449315  0.52498531     0.02300
C293        C  0.94512943  0.23070026  0.56026649     0.27100
C294        C  0.90002736  0.22109048  0.57567967    -0.25400
N295        N  0.88283656  0.15200073  0.50348609    -0.82800
H296        H  0.96883938  0.17571422  0.48030209     0.12900
C297        C  0.01378058  0.22713008  0.50417649     0.02300
N298        N  0.96537386  0.25772241  0.57859532    -0.81400
H299        H  0.88045080  0.23430211  0.60149936     0.17800
C300        C  0.00897424  0.25047598  0.47177809    -0.26200
C301        C  0.04840871  0.26813567  0.45939957     0.35800
C302        C  0.09361446  0.26243473  0.47974379    -0.20300
C303        C  0.09914420  0.23757070  0.50942220    -0.25500
C304        C  0.05942586  0.21999612  0.52223781     0.27200
H305        H  0.97384717  0.25594906  0.45783074     0.12900
N306        N  0.04222834  0.29207870  0.42662168    -0.82800
H307        H  0.13391129  0.23285112  0.52477449     0.17800
N308        N  0.06485927  0.19567360  0.55470591    -0.81400
H309        H  0.02950123  0.28318863  0.39499472     0.33400
H310        H  0.01595341  0.30651878  0.44009681     0.37900
H311        H  0.10083364  0.19323066  0.56443689     0.33400
H312        H  0.04582087  0.20107057  0.58545721     0.30100
H313        H  0.94231043  0.26745196  0.60351520     0.33400
H314        H  0.99685090  0.25204360  0.59645975     0.30100
H315        H  0.85189168  0.15827438  0.48533255     0.37900
H316        H  0.90600511  0.14222295  0.47864576     0.33400
C317        C  0.22851099  0.42770369  0.47875840    -0.20300
C318        C  0.19655272  0.44230679  0.51038057     0.35900
C319        C  0.20105277  0.47310011  0.51821765    -0.26300
C320        C  0.23648403  0.48975413  0.49523919     0.02300
C321        C  0.26918210  0.47534652  0.46466140     0.27100
C322        C  0.26475894  0.44449305  0.45653908    -0.25400
N323        N  0.15870352  0.42613842  0.53343222    -0.82800
H324        H  0.17614460  0.48439187  0.54179120     0.12900
C325        C  0.23767024  0.52240988  0.50326457     0.02300
N326        N  0.30662955  0.49209120  0.44206148    -0.81400
H327        H  0.28953264  0.43354174  0.43245791     0.17800
C328        C  0.26708023  0.53397215  0.53864871    -0.26200
C329        C  0.26444694  0.56424513  0.55157530     0.35800
C330        C  0.23115631  0.58335660  0.52874452    -0.20300
C331        C  0.20352141  0.57181356  0.49158614    -0.25500
C332        C  0.20634842  0.54156425  0.47878313     0.27200
H333        H  0.29123978  0.51908381  0.55713206     0.12900
N334        N  0.29484351  0.57536502  0.58836634    -0.82800
H335        H  0.17820369  0.58614932  0.47353470     0.17800
N336        N  0.17626730  0.52991338  0.44216197    -0.81400
H337        H  0.31627737  0.55830845  0.60210471     0.33400
H338        H  0.31826245  0.59076065  0.57309841     0.37900
H339        H  0.15462690  0.54675388  0.42807209     0.33400
H340        H  0.19869153  0.52252264  0.41481306     0.30100
H341        H  0.32805438  0.47814754  0.42106693     0.33400
H342        H  0.29035138  0.50736051  0.41931782     0.30100
H343        H  0.13457674  0.41937678  0.50745337     0.37900
H344        H  0.13938533  0.44001633  0.55641097     0.33400
C345        C  0.60955685  0.86219868  0.34291785    -0.20300
C346        C  0.61002473  0.84623191  0.29979806     0.35900
C347        C  0.57157167  0.84957205  0.26833687    -0.26300
C348        C  0.53268185  0.86851197  0.27858105     0.02300
C349        C  0.53224929  0.88466729  0.32126916     0.27100
C350        C  0.57056053  0.88124162  0.35308368    -0.25400
N351        N  0.64806347  0.82545487  0.28906480    -0.82800
H352        H  0.57137049  0.83678623  0.23589410     0.12900
C353        C  0.49181505  0.86971052  0.24499026     0.02300
N354        N  0.49279177  0.90430271  0.33221724    -0.81400
H355        H  0.56985032  0.89338595  0.38612970     0.17800
C356        C  0.44621586  0.86037191  0.25985778    -0.26200
C357        C  0.40827791  0.85701704  0.22763850     0.35800
C358        C  0.41589625  0.86378973  0.17927607    -0.20300
C359        C  0.46123065  0.87443534  0.16514159    -0.25500
C360        C  0.49910625  0.87740594  0.19734690     0.27200
H361        H  0.44089890  0.85420701  0.29644381     0.12900
N362        N  0.36288627  0.84571845  0.24386331    -0.82800
H363        H  0.46764862  0.87993685  0.12847472     0.17800
N364        N  0.54530891  0.88775764  0.18175243    -0.81400
H365        H  0.36272327  0.84329921  0.28052410     0.33400
H366        H  0.35916208  0.82427723  0.22996527     0.37900
H367        H  0.54500781  0.89223042  0.14558167     0.33400
H368        H  0.55185227  0.90798389  0.19878236     0.30100
H369        H  0.49775407  0.91438310  0.36507830     0.33400
H370        H  0.49289346  0.92138415  0.30720719     0.30100
H371        H  0.67884072  0.83782226  0.28148462     0.37900
H372        H  0.64044847  0.81348792  0.25838221     0.33400
C373        C  0.25296738  0.73790119  0.69927669    -0.20300
C374        C  0.26404243  0.72366969  0.74225998     0.35900
C375        C  0.27478484  0.74078013  0.78201513    -0.26300
C376        C  0.27462589  0.77189646  0.77986744     0.02300
C377        C  0.26337698  0.78637997  0.73737101     0.27100
C378        C  0.25258087  0.76920227  0.69730987    -0.25400
N379        N  0.26355208  0.69186120  0.74605633    -0.82800
H380        H  0.28274614  0.72970818  0.81503746     0.12900
C381        C  0.28300132  0.78856493  0.82381026     0.02300
N382        N  0.26322443  0.81834190  0.73513092    -0.81400
H383        H  0.24449966  0.78027424  0.66435157     0.17800
C384        C  0.32949423  0.79795365  0.83509670    -0.26200
C385        C  0.34004829  0.80865933  0.88058209     0.35800
C386        C  0.30324714  0.80936489  0.91513158    -0.20300
C387        C  0.25603292  0.80215201  0.90215327    -0.25500
C388        C  0.24561072  0.79165539  0.85691990     0.27200
H389        H  0.35793007  0.79556779  0.80909170     0.12900
N390        N  0.38831912  0.81686201  0.89245128    -0.82800
H391        H  0.22745469  0.80320634  0.92821850     0.17800
N392        N  0.19773985  0.78246745  0.84516530    -0.81400
H393        H  0.41129186  0.81367018  0.86357513     0.33400
H394        H  0.38818564  0.83972999  0.89943857     0.37900
H395        H  0.17448587  0.78558973  0.87385878     0.33400
H396        H  0.18541374  0.79642435  0.81830920     0.30100
H397        H  0.25466145  0.82550883  0.70111253     0.33400
H398        H  0.23580830  0.82611688  0.75734503     0.30100
H399        H  0.23878740  0.68603916  0.77227430     0.37900
H400        H  0.29757898  0.68479871  0.75690031     0.33400
C401        C  0.27343899  0.76980524  0.19786529    -0.20300
C402        C  0.26974280  0.73839105  0.19757743     0.35900
C403        C  0.25629607  0.72362394  0.23922963    -0.26300
C404        C  0.24755628  0.73959255  0.28080404     0.02300
C405        C  0.25257105  0.77071794  0.28157493     0.27100
C406        C  0.26510618  0.78552994  0.24001263    -0.25400
N407        N  0.27831753  0.72166816  0.15506987    -0.82800
H408        H  0.25318680  0.69958546  0.23955136     0.12900
C409        C  0.23709292  0.72354682  0.32469125     0.02300
N410        N  0.24570131  0.78702854  0.32481740    -0.81400
H411        H  0.26832293  0.80956291  0.24055505     0.17800
C412        C  0.27562121  0.71629002  0.35391044    -0.26200
C413        C  0.26751581  0.70571491  0.39946830     0.35800
C414        C  0.22004902  0.70251010  0.41617643    -0.20300
C415        C  0.18138861  0.70751385  0.38557775    -0.25500
C416        C  0.18954468  0.71830786  0.33970802     0.27200
H417        H  0.31214167  0.72004887  0.34195689     0.12900
N418        N  0.30757231  0.69885415  0.42917112    -0.82800
H419        H  0.14492221  0.70489550  0.39841798     0.17800
N420        N  0.15000276  0.72474523  0.30888974    -0.81400
H421        H  0.32852653  0.68258734  0.41232918     0.33400
H422        H  0.32838034  0.71802770  0.43267462     0.37900
H423        H  0.11743316  0.71938845  0.32524160     0.33400
H424        H  0.14925768  0.74771640  0.30305324     0.30100
H425        H  0.25189321  0.80973140  0.31955742     0.33400
H426        H  0.20965602  0.78503142  0.33472362     0.30100
H427        H  0.31502097  0.72293795  0.14746578     0.37900
H428        H  0.27107200  0.69909975  0.16048028     0.33400
C429        C  0.30612278  0.08314277  0.99006349    -0.20300
C430        C  0.27006158  0.06480577  0.97048303     0.35900
C431        C  0.26699463  0.03474050  0.98424261    -0.26300
C432        C  0.29897360  0.02265114  0.01711068     0.02300
C433        C  0.33329814  0.04111980  0.03844597     0.27100
C434        C  0.33637769  0.07117769  0.02495873    -0.25400
N435        N  0.23721556  0.07652891  0.93617054    -0.82800
H436        H  0.24058062  0.02036944  0.96813400     0.12900
C437        C  0.29962422  0.99003020  0.02519521     0.02300
N438        N  0.36590484  0.02894102  0.07259656    -0.81400
H439        H  0.36389972  0.08497713  0.04049156     0.17800
C440        C  0.33555524  0.97301599  0.00316477    -0.26200
C441        C  0.33836144  0.94202103  0.00941040     0.35800
C442        C  0.30464803  0.92764514  0.03919142    -0.20300
C443        C  0.26837795  0.94489951  0.06104489    -0.25500
C444        C  0.26546776  0.97593468  0.05420482     0.27200
H445        H  0.36161875  0.98409653  0.98083836     0.12900
N446        N  0.37639201  0.92544703  0.98682126    -0.82800
H447        H  0.24249506  0.93419130  0.08400451     0.17800
N448        N  0.22838397  0.99322677  0.07690231    -0.81400
H449        H  0.40002579  0.93973264  0.96931909     0.33400
H450        H  0.36078819  0.91229551  0.96065786     0.37900
H451        H  0.20595791  0.97948988  0.09692028     0.33400
H452        H  0.24497003  0.00769505  0.10059928     0.30100
H453        H  0.38944217  0.04530917  0.08459003     0.33400
H454        H  0.34555365  0.02225291  0.10178494     0.30100
H455        H  0.21625214  0.09281605  0.95294830     0.37900
H456        H  0.21358407  0.06002674  0.92479474     0.33400
C457        C  0.24633832  0.26982203  0.31478735    -0.20300
C458        C  0.25217175  0.28358384  0.27032616     0.35900
C459        C  0.26095671  0.26595301  0.23047768    -0.26300
C460        C  0.26375285  0.23492945  0.23379560     0.02300
C461        C  0.25642583  0.22090595  0.27752422     0.27100
C462        C  0.24767175  0.23853419  0.31779202    -0.25400
N463        N  0.24908727  0.31539035  0.26564542    -0.82800
H464        H  0.26609744  0.27646414  0.19643731     0.12900
C465        C  0.27465486  0.21814787  0.19026542     0.02300
N466        N  0.25831930  0.18900318  0.28080639    -0.81400
H467        H  0.24311503  0.22785339  0.35174574     0.17800
C468        C  0.32124219  0.20698672  0.18268466    -0.26200
C469        C  0.33645101  0.19795263  0.13733322     0.35800
C470        C  0.30418055  0.20052593  0.09919667    -0.20300
C471        C  0.25642796  0.20940445  0.10825025    -0.25500
C472        C  0.24141451  0.21825050  0.15323481     0.27200
H473        H  0.34656059  0.20707358  0.21157127     0.12900
N474        N  0.38506641  0.18812411  0.12960816    -0.82800
H475        H  0.23104436  0.21093628  0.07956423     0.17800
N476        N  0.19327011  0.22902106  0.16104270    -0.81400
H477        H  0.40452257  0.18898969  0.16100332     0.33400
H478        H  0.38383162  0.16567642  0.11989003     0.37900
H479        H  0.17343163  0.22819940  0.12985792     0.33400
H480        H  0.17662676  0.21450024  0.18474184     0.30100
H481        H  0.25239455  0.18220416  0.31559684     0.33400
H482        H  0.22995599  0.18056600  0.26090430     0.30100
H483        H  0.21389929  0.32154658  0.27412279     0.37900
H484        H  0.25477898  0.32185467  0.23065166     0.33400
C485        C  0.23909282  0.30766963  0.59931260    -0.20300
C486        C  0.20339172  0.30351349  0.63426116     0.35900
C487        C  0.21703298  0.29375851  0.67938079    -0.26300
C488        C  0.26518147  0.28725228  0.68947200     0.02300
C489        C  0.30099765  0.29265812  0.65544810     0.27100
C490        C  0.28765728  0.30312594  0.61081941    -0.25400
N491        N  0.15340080  0.30717627  0.62304862    -0.82800
H492        H  0.18975534  0.28920787  0.70577696     0.12900
C493        C  0.27663711  0.27071872  0.73294983     0.02300
N494        N  0.35044335  0.28611349  0.66574637    -0.81400
H495        H  0.31514267  0.30640219  0.58411611     0.17800
C496        C  0.28479134  0.23999171  0.72951384    -0.26200
C497        C  0.29325447  0.22275333  0.76985411     0.35800
C498        C  0.29336287  0.23660790  0.81454151    -0.20300
C499        C  0.28655751  0.26761129  0.81773951    -0.25500
C500        C  0.27796194  0.28482339  0.77722573     0.27200
H501        H  0.28402594  0.22941676  0.69514092     0.12900
N502        N  0.30224742  0.19133234  0.76557542    -0.82800
H503        H  0.28669068  0.27829648  0.85202801     0.17800
N504        N  0.26993106  0.31638246  0.78079057    -0.81400
H505        H  0.30062625  0.18462808  0.73029274     0.33400
H506        H  0.33751955  0.18752182  0.77654623     0.37900
H507        H  0.27173733  0.32327753  0.81597457     0.33400
H508        H  0.29803531  0.32694106  0.76296729     0.30100
H509        H  0.37229344  0.29084400  0.63661822     0.33400
H510        H  0.36106416  0.30041379  0.69282911     0.30100
H511        H  0.14447934  0.29067953  0.59859584     0.37900
H512        H  0.13198033  0.30342208  0.65283955     0.33400
C513        C  0.61472391  0.14466565  0.66981416    -0.20300
C514        C  0.60796359  0.16575148  0.70628530     0.35900
C515        C  0.57157855  0.16132626  0.73993547    -0.26300
C516        C  0.54226616  0.13603244  0.73875170     0.02300
C517        C  0.54890624  0.11493069  0.70222147     0.27100
C518        C  0.58473435  0.11968877  0.66768403    -0.25400
N519        N  0.63658949  0.19230400  0.70782035    -0.82800
H520        H  0.56571281  0.17790769  0.76719908     0.12900
C521        C  0.50390199  0.13304694  0.77534850     0.02300
N522        N  0.51953946  0.08874749  0.70054648    -0.81400
H523        H  0.58979932  0.10368044  0.63943610     0.17800
C524        C  0.45569903  0.13098079  0.76162422    -0.26200
C525        C  0.41810085  0.13270804  0.79501405     0.35800
C526        C  0.42890622  0.13739252  0.84324916    -0.20300
C527        C  0.47735994  0.13743244  0.85709025    -0.25500
C528        C  0.51482119  0.13517149  0.82378111     0.27200
H529        H  0.44728140  0.12913041  0.72448032     0.12900
N530        N  0.36911131  0.13026720  0.77984666    -0.82800
H531        H  0.48626868  0.14048980  0.89391341     0.17800
N532        N  0.56405508  0.13588119  0.83877833    -0.81400
H533        H  0.36740541  0.12740895  0.74328908     0.33400
H534        H  0.35496530  0.11097187  0.79495816     0.37900
H535        H  0.56608958  0.13781751  0.87546683     0.33400
H536        H  0.57970957  0.11541052  0.82986724     0.30100
H537        H  0.52892489  0.07553449  0.67149978     0.33400
H538        H  0.52702150  0.07614845  0.73062652     0.30100
H539        H  0.67136238  0.18601078  0.71738493     0.37900
H540        H  0.62435401  0.20663162  0.73444232     0.33400
C541        C  0.16501998  0.19337571  0.96025652    -0.20300
C542        C  0.14952945  0.18544098  0.00597812     0.35900
C543        C  0.10546460  0.19678084  0.02339002    -0.26300
C544        C  0.07703347  0.21577346  0.99569108     0.02300
C545        C  0.09180931  0.22269278  0.94936762     0.27100
C546        C  0.13567560  0.21144055  0.93218622    -0.25400
N547        N  0.18015057  0.16772373  0.03554611    -0.82800
H548        H  0.09418002  0.19181167  0.05914074     0.12900
C549        C  0.03409845  0.23078208  0.01613838     0.02300
N550        N  0.06360817  0.24269884  0.92108010    -0.81400
H551        H  0.14840091  0.21812384  0.89760605     0.17800
C552        C  0.03975506  0.25844456  0.03831017    -0.26200
C553        C  0.99976544  0.27619825  0.05023144     0.35800
C554        C  0.95295334  0.26633335  0.03932826    -0.20300
C555        C  0.94744751  0.23757329  0.02023987    -0.25500
C556        C  0.98755193  0.21972944  0.00851026     0.27200
H557        H  0.07556465  0.26682524  0.04475394     0.12900
N558        N  0.00708395  0.30437556  0.07274785    -0.82800
H559        H  0.91180790  0.22938734  0.01257970     0.17800
N560        N  0.98123139  0.19061963  0.98838242    -0.81400
H561        H  0.02542409  0.30063990  0.10428557     0.33400
H562        H  0.02899361  0.31728059  0.05088093     0.37900
H563        H  0.94470860  0.18563190  0.98566526     0.33400
H564        H  0.99489599  0.19090015  0.95400666     0.30100
H565        H  0.08028900  0.24634084  0.88848397     0.33400
H566        H  0.03095990  0.23233393  0.91388084     0.30100
H567        H  0.18343230  0.14667923  0.02003590     0.37900
H568        H  0.16424187  0.16460076  0.06865070     0.33400
C569        C  0.45193047  0.24460756  0.97085210    -0.20300
C570        C  0.49859581  0.23636221  0.95596797     0.35900
C571        C  0.53776636  0.25417387  0.96832632    -0.26300
C572        C  0.53109087  0.28033561  0.99464581     0.02300
C573        C  0.48435585  0.29012545  0.00583723     0.27100
C574        C  0.44509598  0.27222700  0.99358297    -0.25400
N575        N  0.50650794  0.20977806  0.92895755    -0.82800
H576        H  0.57381787  0.24684838  0.95923922     0.12900
C577        C  0.57338332  0.29405825  0.01684103     0.02300
N578        N  0.47716556  0.31755620  0.03116007    -0.81400
H579        H  0.40931384  0.27913439  0.00427246     0.17800
C580        C  0.59517435  0.31923665  0.99697991    -0.26200
C581        C  0.63902701  0.32991800  0.01484940     0.35800
C582        C  0.66112772  0.31462636  0.05241583    -0.20300
C583        C  0.63744824  0.29075972  0.07397809    -0.25500
C584        C  0.59358033  0.28047829  0.05683225     0.27200
H585        H  0.57895424  0.32974842  0.96656572     0.12900
N586        N  0.66267073  0.35475753  0.99309238    -0.82800
H587        H  0.65447634  0.27921700  0.10304892     0.17800
N588        N  0.57034255  0.25541327  0.07849300    -0.81400
H589        H  0.64231006  0.36285802  0.96495251     0.33400
H590        H  0.66407837  0.37187925  0.01803066     0.37900
H591        H  0.59033735  0.24762890  0.10709020     0.33400
H592        H  0.53748800  0.26287777  0.09223333     0.30100
H593        H  0.44051088  0.32172557  0.03623790     0.33400
H594        H  0.49204837  0.31499695  0.06468277     0.30100
H595        H  0.53026486  0.19608518  0.94751063     0.37900
H596        H  0.52301418  0.21571234  0.89714066     0.33400
C597        C  0.91827325  0.36696187  0.17458089    -0.20300
C598        C  0.96030889  0.38362646  0.16678083     0.35900
C599        C  0.99548953  0.38504972  0.20198258    -0.26300
C600        C  0.99022005  0.36951661  0.24470736     0.02300
C601        C  0.94720944  0.35380805  0.25336536     0.27100
C602        C  0.91154375  0.35309951  0.21854320    -0.25400
N603        N  0.96757921  0.39908365  0.12320110    -0.82800
H604        H  0.02768652  0.39787573  0.19543970     0.12900
C605        C  0.03078913  0.36870604  0.27888423     0.02300
N606        N  0.94055820  0.33767903  0.29667626    -0.81400
H607        H  0.87934688  0.34024124  0.22496639     0.17800
C608        C  0.02241764  0.37530219  0.32666517    -0.26200
C609        C  0.05910496  0.37266452  0.36024923     0.35800
C610        C  0.10608889  0.36446208  0.34584461    -0.20300
C611        C  0.11471255  0.35914824  0.29762821    -0.25500
C612        C  0.07757936  0.36038192  0.26432265     0.27200
H613        H  0.98684339  0.38206825  0.33825063     0.12900
N614        N  0.04801019  0.37798393  0.40892614    -0.82800
H615        H  0.15034323  0.35299029  0.28583930     0.17800
N616        N  0.08699790  0.35230623  0.21601639    -0.81400
H617        H  0.03441763  0.39963737  0.41214824     0.33400
H618        H  0.02098642  0.36320511  0.41908407     0.37900
H619        H  0.12320693  0.34675407  0.21110468     0.33400
H620        H  0.06737334  0.33307606  0.20871408     0.30100
H621        H  0.90682501  0.32757296  0.29763358     0.33400
H622        H  0.96604316  0.32050247  0.29738515     0.30100
H623        H  0.99933947  0.39109419  0.10778761     0.37900
H624        H  0.97215537  0.42167179  0.13078564     0.33400
C625        C  0.78416953  0.26973478  0.19342897    -0.20300
C626        C  0.78557928  0.23820069  0.19211054     0.35900
C627        C  0.77784095  0.22208321  0.23390840    -0.26300
C628        C  0.76790501  0.23687946  0.27629708     0.02300
C629        C  0.76570644  0.26818483  0.27757425     0.27100
C630        C  0.77410502  0.28431189  0.23617565    -0.25400
N631        N  0.79367875  0.22265731  0.14839443    -0.82800
H632        H  0.77898246  0.19796419  0.23344158     0.12900
C633        C  0.75939042  0.21981348  0.31976583     0.02300
N634        N  0.75493780  0.28339703  0.32107374    -0.81400
H635        H  0.77280824  0.30842079  0.23733616     0.17800
C636        C  0.79572426  0.21884862  0.35349493    -0.26200
C637        C  0.78598669  0.20910633  0.39930132     0.35800
C638        C  0.73876059  0.20060729  0.41183140    -0.20300
C639        C  0.70363507  0.19876403  0.37664108    -0.25500
C640        C  0.71353005  0.20850522  0.33050216     0.27200
H641        H  0.83121317  0.22711150  0.34485535     0.12900
N642        N  0.82390665  0.20866545  0.43328338    -0.82800
H643        H  0.66760965  0.19176311  0.38583383     0.17800
N644        N  0.67675365  0.20827939  0.29513448    -0.81400
H645        H  0.85152996  0.19505204  0.42018265     0.33400
H646        H  0.83736104  0.23024451  0.43649387     0.37900
H647        H  0.64515002  0.19906084  0.30865316     0.33400
H648        H  0.66875249  0.23038372  0.28659855     0.30100
H649        H  0.75511653  0.30645983  0.31612280     0.33400
H650        H  0.71991170  0.27778121  0.33097799     0.30100
H651        H  0.76435059  0.22709624  0.12656334     0.38700
H652        H  0.79416980  0.19963955  0.15383408     0.33400
C653        C  0.80818307  0.30891060  0.91186106    -0.20300
C654        C  0.76050044  0.30297581  0.89798490     0.35900
C655        C  0.75154670  0.29147011  0.85315898    -0.26300
C656        C  0.78928016  0.28590521  0.82170219     0.02300
C657        C  0.83658828  0.29380906  0.83378068     0.27100
C658        C  0.84562000  0.30561755  0.87889419    -0.25400
N659        N  0.72111504  0.30782698  0.92988320    -0.82800
H660        H  0.71511510  0.28574041  0.84350869     0.12900
C661        C  0.77866795  0.26940850  0.77812051     0.02300
N662        N  0.87526611  0.28878026  0.80090385    -0.81400
H663        H  0.88220858  0.31015018  0.88942838     0.17800
C664        C  0.76990672  0.28502490  0.73640057    -0.26200
C665        C  0.75697929  0.26992851  0.69493842     0.35800
C666        C  0.75347338  0.23848734  0.69548845    -0.20300
C667        C  0.76220303  0.22304545  0.73768235    -0.25500
C668        C  0.77448248  0.23821256  0.77907154     0.27200
H669        H  0.77275848  0.30907641  0.73640415     0.12900
N670        N  0.74906760  0.28637132  0.65219967    -0.82800
H671        H  0.75962661  0.19898320  0.73834618     0.17800
N672        N  0.78238897  0.22216621  0.82222555    -0.81400
H673        H  0.75651083  0.30893669  0.65725989     0.33400
H674        H  0.71242598  0.28520121  0.64460339     0.37900
H675        H  0.77724194  0.19934499  0.81710651     0.33400
H676        H  0.81840103  0.22486057  0.83145713     0.30100
H677        H  0.90776681  0.29595038  0.81514756     0.33400
H678        H  0.87858207  0.26579286  0.79582962     0.30100
H679        H  0.70363159  0.28753248  0.93506677     0.37900
H680        H  0.69692126  0.32245718  0.91381639     0.33400
C681        C  0.92366088  0.64080007  0.84649828    -0.20300
C682        C  0.91484773  0.63503036  0.79836494     0.35900
C683        C  0.95343711  0.63287883  0.76649283    -0.26300
C684        C  0.00101216  0.63573035  0.78181069     0.02300
C685        C  0.01015418  0.63924966  0.83041337     0.27100
C686        C  0.97143303  0.64193015  0.86218643    -0.25400
N687        N  0.86683412  0.63129372  0.78157453    -0.82800
H688        H  0.94603487  0.62993280  0.72930511     0.12900
C689        C  0.04045689  0.63750396  0.74635258     0.02300
N690        N  0.05875528  0.64061132  0.84711637    -0.81400
H691        H  0.97871333  0.64594525  0.89914072     0.17800
C692        C  0.06984299  0.66278380  0.74614950    -0.26200
C693        C  0.10600890  0.66629984  0.71216733     0.35800
C694        C  0.11317687  0.64426438  0.67743436    -0.20300
C695        C  0.08352276  0.61912416  0.67695561    -0.25500
C696        C  0.04748664  0.61533008  0.71152312     0.27200
H697        H  0.06392624  0.68029604  0.77191197     0.12900
N698        N  0.13401490  0.69298010  0.71166843    -0.82800
H699        H  0.08881542  0.60236143  0.64987429     0.17800
N700        N  0.01813890  0.58910940  0.71151574    -0.81400
H701        H  0.11061882  0.71111139  0.70797764     0.33400
H702        H  0.15107051  0.69492225  0.74425894     0.37900
H703        H  0.02781204  0.57505245  0.68360457     0.33400
H704        H  0.02528483  0.57743110  0.74261350     0.30100
H705        H  0.05934585  0.64346579  0.88371447     0.33400
H706        H  0.07494079  0.62000567  0.84009183     0.30100
H707        H  0.86437222  0.61005465  0.76666921     0.37900
H708        H  0.86089712  0.64680992  0.75480397     0.33400
C709        C  0.94365620  0.74447212  0.97827408    -0.20300
C710        C  0.99054378  0.73625426  0.96349583     0.35900
C711        C  0.02962244  0.75436014  0.97587727    -0.26300
C712        C  0.02275755  0.78067223  0.00180066     0.02300
C713        C  0.97585273  0.79016373  0.01318916     0.27100
C714        C  0.93678474  0.77198186  0.00130359    -0.25400
N715        N  0.99849265  0.70944752  0.93669912    -0.82800
H716        H  0.06585201  0.74743104  0.96673816     0.12900
C717        C  0.06531275  0.79559938  0.02196050     0.02300
N718        N  0.96811361  0.81807280  0.03705398    -0.81400
H719        H  0.90092916  0.77886100  0.01179464     0.17800
C720        C  0.09227209  0.81560335  0.99466452    -0.26200
C721        C  0.13677044  0.82636006  0.01090392     0.35800
C722        C  0.15388061  0.81707547  0.05524662    -0.20300
C723        C  0.12581985  0.79813307  0.08316269    -0.25500
C724        C  0.08183790  0.78715423  0.06691266     0.27200
H725        H  0.07970111  0.82162556  0.95984635     0.12900
N726        N  0.16632358  0.84467907  0.98120740    -0.82800
H727        H  0.13987923  0.79035357  0.11655766     0.17800
N728        N  0.05562061  0.76568299  0.09430964    -0.81400
H729        H  0.14924622  0.84879000  0.94910114     0.33400
H730        H  0.17008935  0.86526852  0.99797415     0.37900
H731        H  0.07369863  0.76086057  0.12562336     0.33400
H732        H  0.02282335  0.77530051  0.10414777     0.30100
H733        H  0.93139536  0.82198613  0.04218097     0.33400
H734        H  0.98326275  0.81659861  0.07058399     0.30100
H735        H  0.98117391  0.71203401  0.90431999     0.37900
H736        H  0.03501943  0.70659190  0.92905770     0.33400
C737        C  0.65514036  0.69709409  0.94862493    -0.20300
C738        C  0.63072608  0.67977073  0.98251870     0.35900
C739        C  0.58561854  0.68959809  0.99964776    -0.26300
C740        C  0.56529477  0.71638504  0.98356190     0.02300
C741        C  0.58824642  0.73245326  0.94739959     0.27100
C742        C  0.63292234  0.72268011  0.93037542    -0.25400
N743        N  0.65284083  0.65333310  0.00118866    -0.82800
H744        H  0.56752077  0.67727525  0.02726837     0.12900
C745        C  0.52250432  0.72944020  0.00716744     0.02300
N746        N  0.56694383  0.75943850  0.92973893    -0.81400
H747        H  0.65173466  0.73593236  0.90429741     0.17800
C748        C  0.52893096  0.75427333  0.03640980    -0.26200
C749        C  0.48954411  0.77114042  0.05270244     0.35800
C750        C  0.44256938  0.76303004  0.03910721    -0.20300
C751        C  0.43616756  0.73674662  0.01273300    -0.25500
C752        C  0.47577596  0.72004710  0.99618504     0.27200
H753        H  0.56509894  0.76120843  0.04491046     0.12900
N754        N  0.49727863  0.79690028  0.08181603    -0.82800
H755        H  0.40032843  0.73019117  0.00245533     0.17800
N756        N  0.46885522  0.69439021  0.96669056    -0.81400
H757        H  0.53392883  0.79996464  0.08793056     0.33400
H758        H  0.48138341  0.79278171  0.11463816     0.37900
H759        H  0.43222913  0.69037377  0.96203756     0.33400
H760        H  0.48294186  0.69927799  0.93334852     0.30100
H761        H  0.58877342  0.76892536  0.90373447     0.33400
H762        H  0.53472716  0.75373584  0.91334771     0.30100
H763        H  0.68378297  0.65969003  0.01924721     0.37900
H764        H  0.63024093  0.64331721  0.02601436     0.33400
C765        C  0.79656561  0.58374749  0.98092769    -0.20300
C766        C  0.76415169  0.56453597  0.95765422     0.35900
C767        C  0.76349168  0.53397587  0.96930435    -0.26300
C768        C  0.79435139  0.52229737  0.00370703     0.02300
C769        C  0.82508356  0.54161763  0.02827440     0.27100
C770        C  0.82583859  0.57199723  0.01673274    -0.25400
N771        N  0.73245836  0.57593713  0.92205834    -0.82800
H772        H  0.73968993  0.51904833  0.95072479     0.12900
C773        C  0.79661644  0.48962146  0.01218743     0.02300
N774        N  0.85609429  0.53011268  0.06439058    -0.81400
H775        H  0.85073055  0.58639346  0.03495558     0.17800
C776        C  0.83934184  0.47434189  0.00140850    -0.26200
C777        C  0.84482404  0.44390796  0.01159901     0.35800
C778        C  0.80620459  0.42809307  0.03206433    -0.20300
C779        C  0.76328835  0.44338397  0.04276517    -0.25500
C780        C  0.75812785  0.47404121  0.03302718     0.27200
H781        H  0.86902264  0.48648817  0.98593199     0.12900
N782        N  0.89014310  0.42931649  0.00289915    -0.82800
H783        H  0.73388094  0.43140970  0.05904851     0.17800
N784        N  0.71440913  0.48952807  0.04495807    -0.81400
H785        H  0.91465376  0.44404131  0.98763064     0.33400
H786        H  0.90438269  0.42323436  0.03557891     0.37900
H787        H  0.68960930  0.47490273  0.06001850     0.33400
H788        H  0.72254793  0.50526478  0.07088086     0.30100
H789        H  0.87692853  0.54711421  0.07881178     0.33400
H790        H  0.83427277  0.52214348  0.09165478     0.30100
H791        H  0.70880325  0.59090633  0.93848409     0.37900
H792        H  0.71140770  0.55887022  0.90814650     0.33400
C793        C  0.72840937  0.81000496  0.60376256    -0.20300
C794        C  0.69277977  0.80195796  0.63684628     0.35900
C795        C  0.70669737  0.79402789  0.68270471    -0.26300
C796        C  0.75533609  0.79351798  0.69528612     0.02300
C797        C  0.79045255  0.80346658  0.66325028     0.27100
C798        C  0.77660429  0.81162471  0.61767705    -0.25400
N799        N  0.64331280  0.79986869  0.62295969    -0.82800
H800        H  0.68003081  0.78607897  0.70759847     0.12900
C801        C  0.76955416  0.77761809  0.73842443     0.02300
N802        N  0.84019907  0.80378587  0.67655208    -0.81400
H803        H  0.80378174  0.81794351  0.59216795     0.17800
C804        C  0.79223550  0.74983744  0.73335268    -0.26200
C805        C  0.80188939  0.73206061  0.77272082     0.35800
C806        C  0.78940791  0.74264005  0.81784034    -0.20300
C807        C  0.76846673  0.77095821  0.82319396    -0.25500
C808        C  0.75768687  0.78846172  0.78360193     0.27200
H809        H  0.80089980  0.74161528  0.69834669     0.12900
N810        N  0.82364479  0.70317843  0.76713900    -0.82800
H811        H  0.75862683  0.77879950  0.85812741     0.17800
N812        N  0.73374257  0.81671113  0.78882353    -0.81400
H813        H  0.83030640  0.69868363  0.73149748     0.33400
H814        H  0.85706546  0.70367762  0.78374952     0.37900
H815        H  0.72698123  0.82124779  0.82443867     0.33400
H816        H  0.75723369  0.83314277  0.77678247     0.30100
H817        H  0.86157674  0.81132418  0.64862461     0.33400
H818        H  0.84378637  0.81926476  0.70386553     0.30100
H819        H  0.64078797  0.78279071  0.59801970     0.37900
H820        H  0.62184160  0.79356847  0.65159505     0.33400
C821        C  0.79196524  0.70171572  0.09884283    -0.20300
C822        C  0.74490702  0.71069535  0.11174936     0.35900
C823        C  0.73558039  0.72041221  0.15774397    -0.26300
C824        C  0.77226424  0.72117345  0.19112221     0.02300
C825        C  0.81834139  0.71019857  0.17965482     0.27100
C826        C  0.82767669  0.70018615  0.13353329    -0.25400
N827        N  0.70674826  0.71073339  0.07800444    -0.82800
H828        H  0.70007836  0.72871078  0.16686848     0.12900
C829        C  0.76359213  0.73734043  0.23547172     0.02300
N830        N  0.85582615  0.71049039  0.21431269    -0.81400
H831        H  0.86370528  0.69312541  0.12394776     0.17800
C832        C  0.75206897  0.72172590  0.27658997    -0.26200
C833        C  0.74363804  0.73691757  0.31926716     0.35800
C834        C  0.74757366  0.76836893  0.32042091    -0.20300
C835        C  0.75874462  0.78373614  0.27866200    -0.25500
C836        C  0.76681777  0.76854899  0.23627036     0.27200
H837        H  0.74959402  0.69767022  0.27524924     0.12900
N838        N  0.73245456  0.72041840  0.36128801    -0.82800
H839        H  0.76153129  0.80778490  0.27903160     0.17800
N840        N  0.77837991  0.78463016  0.19389309    -0.81400
H841        H  0.73434292  0.69751635  0.35475624     0.33400
H842        H  0.69663883  0.72498235  0.37001547     0.37900
H843        H  0.77872105  0.80755540  0.20033912     0.33400
H844        H  0.81333718  0.77867884  0.18387935     0.30100
H845        H  0.88755006  0.70149247  0.20026903     0.33400
H846        H  0.86310168  0.73270854  0.22248451     0.30100
H847        H  0.69331741  0.73244504  0.07527299     0.37900
H848        H  0.67919999  0.69721047  0.09088584     0.33400
loop_ 
_geom_bond_atom_site_label_1 
_geom_bond_atom_site_label_2 
_geom_bond_distance 
_geom_bond_site_symmetry_2 
_ccdc_geom_bond_type 
O1           C16   1.257       .  A
O1           Al9   1.862   1_554  S
C2           O12   1.262       .  A
C2            O3   1.267       .  A
C2          C681   1.485       .  S
O3           Al5   1.922       .  S
O4            C6   1.257       .  A
O4           Al5   1.899       .  S
Al5          O13   1.892       .  S
Al5          O15   1.934   1_556  S
Al5          O14   1.779       .  S
C6           O19   1.259       .  A
C6          C709   1.489       .  S
O7           C17   1.259       .  A
O7           Al9   1.878       .  S
O8           C21   1.265       .  A
O8          Al18   1.922       .  S
Al9          O22   1.902       .  S
Al9          O19   1.910       .  S
Al9          O14   1.782       .  S
O10          C17   1.267       .  A
O10         Al18   1.928       .  S
O11          C20   1.262       .  A
O11         Al18   1.924       .  S
O12         Al18   1.889       .  S
O13          C20   1.258       .  A
O14         Al18   1.782       .  S
O15          C16   1.269       .  A
C16         C821   1.476       .  S
C17         C806   1.464       .  S
C20         C765   1.493       .  S
C21          O22   1.261       .  A
C21         C737   1.475       .  S
O23          C38   1.257       .  A
O23         Al31   1.854   1_556  S
C24          O34   1.263       .  A
C24          O25   1.270       .  A
C24         C597   1.484       .  S
O25         Al27   1.931       .  S
O26          C28   1.255       .  A
O26         Al27   1.897       .  S
Al27         O35   1.893       .  S
Al27         O37   1.947   1_554  S
Al27         O36   1.781       .  S
C28          O41   1.258       .  A
C28         C554   1.493       .  S
O29          C39   1.259       .  A
O29         Al31   1.884       .  S
O30          C43   1.264       .  A
O30         Al40   1.915       .  S
Al31         O44   1.908       .  S
Al31         O41   1.912       .  S
Al31         O36   1.780       .  S
O32          C39   1.267       .  A
O32         Al40   1.930       .  S
O33          C42   1.259       .  A
O33         Al40   1.917       .  S
O34         Al40   1.880       .  S
O35          C42   1.256       .  A
O36         Al40   1.784       .  S
O37          C38   1.271       .  A
C38         C653   1.475       .  S
C39         C625   1.478       .  S
C42         C778   1.486       .  S
C43          O44   1.263       .  A
C43         C582   1.470       .  S
O45          C60   1.259       .  A
O45         Al53   1.860   1_554  S
C46          O56   1.264       .  A
C46          O47   1.269       .  A
C46         C526   1.494       .  S
O47         Al49   1.928       .  S
O48          C50   1.256       .  A
O48         Al49   1.897       .  S
Al49         O57   1.894       .  S
Al49         O59   1.944   1_556  S
Al49         O58   1.783       .  S
C50          O63   1.256       .  A
C50         C569   1.483       .  S
O51          C61   1.260       .  A
O51         Al53   1.884       .  S
O52          C65   1.263       .  A
O52         Al62   1.925       .  S
Al53         O66   1.904       .  S
Al53         O63   1.900       .  S
Al53         O58   1.784       .  S
O54          C61   1.269       .  A
O54         Al62   1.934       .  S
O55          C64   1.260       .  A
O55         Al62   1.916       .  S
O56         Al62   1.897       .  S
O57          C64   1.257       .  A
O58         Al62   1.781       .  S
O59          C60   1.270       .  A
C60         C470   1.484       .  S
C61         C498   1.478       .  S
C64         C429   1.492       .  S
C65          O66   1.259       .  A
C65         C541   1.473       .  S
O67          C82   1.260       .  A
O67         Al75   1.866   1_556  S
C68          O78   1.264       .  A
C68          O69   1.269       .  A
C68         C358   1.495       .  S
O69         Al71   1.924       .  S
O70          C72   1.255       .  A
O70         Al71   1.891       .  S
Al71         O79   1.893       .  S
Al71         O81   1.935   1_554  S
Al71         O80   1.781       .  S
C72          O85   1.257       .  A
C72         C750   1.488       .  S
O73          C83   1.261       .  A
O73         Al75   1.893       .  S
O74          C87   1.266       .  A
O74         Al84   1.926       .  S
Al75         O88   1.906       .  S
Al75         O85   1.910       .  S
Al75         O80   1.784       .  S
O76          C83   1.264       .  A
O76         Al84   1.911       .  S
O77          C86   1.258       .  A
O77         Al84   1.910       .  S
O78         Al84   1.899       .  S
O79          C86   1.256       .  A
O80         Al84   1.785       .  S
O81          C82   1.269       .  A
C82         C386   1.480       .  S
C83         C401   1.476       .  S
C86         C442   1.491       .  S
C87          O88   1.261       .  A
C87         C722   1.472       .  S
O89         C104   1.260       .  A
O89         Al97   1.872       .  S
C90         O100   1.265       .  A
C90          O91   1.267       .  A
C90         C610   1.494       .  S
O91         Al93   1.924       .  S
O92          C94   1.256       .  A
O92         Al93   1.894       .  S
Al93        O101   1.902       .  S
Al93        O103   1.936       .  S
Al93        O102   1.780       .  S
C94         O107   1.257       .  A
C94         C302   1.482       .  S
O95         C105   1.262       .  A
O95         Al97   1.894       .  S
O96         C109   1.265       .  A
O96        Al106   1.924       .  S
Al97        O110   1.902       .  S
Al97        O107   1.909       .  S
Al97        O102   1.784       .  S
O98         C105   1.266       .  A
O98        Al106   1.922       .  S
O99         C108   1.260       .  A
O99        Al106   1.916       .  S
O100       Al106   1.896       .  S
O101        C108   1.258       .  A
O102       Al106   1.781       .  S
O103        C104   1.269       .  A
C104        C485   1.478       .  S
C105        C457   1.481       .  S
C108        C317   1.493       .  S
C109        O110   1.260       .  A
C109        C274   1.469       .  S
O111        C126   1.258       .  A
O111       Al119   1.863       .  S
C112        O122   1.262       .  A
C112        O113   1.267       .  A
C112        C694   1.474       .  S
O113       Al115   1.928       .  S
O114        C116   1.258       .  A
O114       Al115   1.899       .  S
Al115       O123   1.901       .  S
Al115       O125   1.928       .  S
Al115       O124   1.786       .  S
C116        O129   1.258       .  A
C116        C233   1.488       .  S
O117        C127   1.261       .  A
O117       Al119   1.895       .  S
O118        C131   1.266       .  A
O118       Al128   1.924       .  S
Al119       O132   1.903       .  S
Al119       O129   1.902       .  S
Al119       O124   1.779       .  S
O120        C127   1.263       .  A
O120       Al128   1.917       .  S
O121        C130   1.259       .  A
O121       Al128   1.913       .  S
O122       Al128   1.888       .  S
O123        C130   1.258       .  A
O124       Al128   1.781       .  S
O125        C126   1.266       .  A
C126        C414   1.468       .  S
C127        C373   1.479       .  S
C130        C330   1.494       .  S
C131        O132   1.262       .  A
C131        C205   1.475       .  S
O133        C148   1.259       .  A
O133       Al141   1.862       .  S
C134        O144   1.263       .  A
C134        O135   1.269       .  A
C134        C513   1.478       .  S
O135       Al137   1.932       .  S
O136        C138   1.254       .  A
O136       Al137   1.890       .  S
Al137       O145   1.889       .  S
Al137       O147   1.937       .  S
Al137       O146   1.785       .  S
C138        O151   1.256       .  A
C138        C261   1.494       .  S
O139        C149   1.262       .  A
O139       Al141   1.894       .  S
O140        C153   1.265       .  A
O140       Al150   1.924       .  S
Al141       O154   1.903       .  S
Al141       O151   1.911       .  S
Al141       O146   1.785       .  S
O142        C149   1.266       .  A
O142       Al150   1.922       .  S
O143        C152   1.257       .  A
O143       Al150   1.911       .  S
O144       Al150   1.885       .  S
O145        C152   1.254       .  A
O146       Al150   1.784       .  S
O147        C148   1.271       .  A
C148        C638   1.477       .  S
C149        C666   1.480       .  S
C152        C177   1.486       .  S
C153        O154   1.262       .  A
C153        C289   1.476       .  S
O155        C170   1.260       .  A
O155       Al163   1.871       .  S
C156        O166   1.262       .  A
C156        O157   1.267       .  A
C156        C345   1.487       .  S
O157       Al159   1.925       .  S
O158        C160   1.258       .  A
O158       Al159   1.902       .  S
Al159       O167   1.902       .  S
Al159       O169   1.931       .  S
Al159       O168   1.782       .  S
C160        O173   1.256       .  A
C160        C218   1.491       .  S
O161        C171   1.261       .  A
O161       Al163   1.889       .  S
O162        C175   1.263       .  A
O162       Al172   1.920       .  S
Al163       O176   1.903       .  S
Al163       O173   1.903       .  S
Al163       O168   1.781       .  S
O164        C171   1.267       .  A
O164       Al172   1.919       .  S
O165        C174   1.260       .  A
O165       Al172   1.910       .  S
O166       Al172   1.890       .  S
O167        C174   1.258       .  A
O168       Al172   1.780       .  S
O169        C170   1.268       .  A
C170        C793   1.469       .  S
C171        C834   1.481       .  S
C174        C190   1.497       .  S
C175        O176   1.260       .  A
C175        C246   1.468       .  S
C177        C178   1.415       .  A
C177        C182   1.406       .  A
C178        C179   1.411       .  A
C178        N183   1.438       .  S
C179        C180   1.403       .  A
C179        H184   1.084       .  S
C180        C185   1.484   1_545  S
C180        C181   1.408       .  A
C181        C182   1.405       .  A
C181        N186   1.438       .  S
C182        H187   1.084       .  S
N183        H203   1.045       .  S
N183        H204   1.046       .  S
C185        C188   1.401       .  A
C185        C192   1.406       .  A
N186        H201   1.045       .  S
N186        H202   1.046       .  S
C188        C189   1.409       .  A
C188        H193   1.084       .  S
C189        C190   1.419       .  A
C189        N194   1.438       .  S
C190        C191   1.411       .  A
C191        C192   1.408       .  A
C191        H195   1.083       .  S
C192        N196   1.438       .  S
N194        H197   1.046       .  S
N194        H198   1.046       .  S
N196        H199   1.046       .  S
N196        H200   1.046   1_565  S
C205        C206   1.411       .  A
C205        C210   1.405       .  A
C206        C207   1.399       .  A
C206        N211   1.439       .  S
C207        C208   1.399       .  A
C207        H212   1.084       .  S
C208        C213   1.481       .  S
C208        C209   1.411       .  A
C209        C210   1.413       .  A
C209        N214   1.437       .  S
C210        H215   1.084       .  S
N211        H231   1.046       .  S
N211        H232   1.046       .  S
C213        C216   1.399       .  A
C213        C220   1.408       .  A
N214        H229   1.046       .  S
N214        H230   1.045       .  S
C216        C217   1.409       .  A
C216        H221   1.084       .  S
C217        C218   1.422       .  A
C217        N222   1.438       .  S
C218        C219   1.406       .  A
C219        C220   1.404       .  A
C219        H223   1.083       .  S
C220        N224   1.438       .  S
N222        H225   1.046       .  S
N222        H226   1.045       .  S
N224        H227   1.045       .  S
N224        H228   1.046       .  S
C233        C234   1.413       .  A
C233        C238   1.410       .  A
C234        C235   1.402   1_455  A
C234        N239   1.433       .  S
C235        C236   1.401   1_655  A
C235        H240   1.084       .  S
C236        C241   1.477   1_455  S
C236        C237   1.405       .  A
C237        C238   1.406       .  A
C237        N242   1.438       .  S
C238        H243   1.083       .  S
N239        H259   1.046       .  S
N239        H260   1.046       .  S
C241        C244   1.403       .  A
C241        C248   1.408       .  A
N242        H257   1.046       .  S
N242        H258   1.045       .  S
C244        C245   1.410       .  A
C244        H249   1.083       .  S
C245        C246   1.409       .  A
C245        N250   1.437       .  S
C246        C247   1.401       .  A
C247        C248   1.401       .  A
C247        H251   1.084       .  S
C248        N252   1.438       .  S
N250        H253   1.046       .  S
N250        H254   1.045       .  S
N252        H255   1.046       .  S
N252        H256   1.045   1_655  S
C261        C262   1.420       .  A
C261        C266   1.408       .  A
C262        C263   1.411       .  A
C262        N267   1.437       .  S
C263        C264   1.401       .  A
C263        H268   1.084       .  S
C264        C269   1.484       .  S
C264        C265   1.408       .  A
C265        C266   1.403       .  A
C265        N270   1.438       .  S
C266        H271   1.083       .  S
N267        H287   1.046       .  S
N267        H288   1.046       .  S
C269        C272   1.402       .  A
C269        C276   1.412       .  A
N270        H285   1.046       .  S
N270        H286   1.046       .  S
C272        C273   1.400       .  A
C272        H277   1.084       .  S
C273        C274   1.406       .  A
C273        N278   1.433       .  S
C274        C275   1.403       .  A
C275        C276   1.411       .  A
C275        H279   1.084       .  S
C276        N280   1.437       .  S
N278        H281   1.046       .  S
N278        H282   1.046       .  S
N280        H283   1.046       .  S
N280        H284   1.046       .  S
C289        C290   1.412       .  A
C289        C294   1.403       .  A
C290        C291   1.413       .  A
C290        N295   1.438       .  S
C291        C292   1.405       .  A
C291        H296   1.083       .  S
C292        C297   1.479   1_655  S
C292        C293   1.406       .  A
C293        C294   1.398       .  A
C293        N298   1.439       .  S
C294        H299   1.084       .  S
N295        H315   1.044       .  S
N295        H316   1.047       .  S
C297        C300   1.401       .  A
C297        C304   1.408       .  A
N298        H313   1.046       .  S
N298        H314   1.045       .  S
C300        C301   1.401       .  A
C300        H305   1.084   1_455  S
C301        C302   1.410       .  A
C301        N306   1.433       .  S
C302        C303   1.408       .  A
C303        C304   1.409       .  A
C303        H307   1.084       .  S
C304        N308   1.438       .  S
N306        H309   1.046       .  S
N306        H310   1.045       .  S
N308        H311   1.046       .  S
N308        H312   1.045       .  S
C317        C318   1.417       .  A
C317        C322   1.410       .  A
C318        C319   1.407       .  A
C318        N323   1.438       .  S
C319        C320   1.400       .  A
C319        H324   1.084       .  S
C320        C325   1.485       .  S
C320        C321   1.408       .  A
C321        C322   1.411       .  A
C321        N326   1.437       .  S
C322        H327   1.083       .  S
N323        H343   1.046       .  S
N323        H344   1.046       .  S
C325        C328   1.400       .  A
C325        C332   1.408       .  A
N326        H341   1.046       .  S
N326        H342   1.045       .  S
C328        C329   1.409       .  A
C328        H333   1.084       .  S
C329        C330   1.419       .  A
C329        N334   1.438       .  S
C330        C331   1.408       .  A
C331        C332   1.407       .  A
C331        H335   1.083       .  S
C332        N336   1.438       .  S
N334        H337   1.046       .  S
N334        H338   1.046       .  S
N336        H339   1.046       .  S
N336        H340   1.045       .  S
C345        C346   1.417       .  A
C345        C350   1.407       .  A
C346        C347   1.405       .  A
C346        N351   1.439       .  S
C347        C348   1.402       .  A
C347        H352   1.084       .  S
C348        C353   1.489       .  S
C348        C349   1.410       .  A
C349        C350   1.409       .  A
C349        N354   1.437       .  S
C350        H355   1.084       .  S
N351        H371   1.045       .  S
N351        H372   1.045       .  S
C353        C356   1.402       .  A
C353        C360   1.409       .  A
N354        H369   1.046       .  S
N354        H370   1.046       .  S
C356        C357   1.409       .  A
C356        H361   1.084       .  S
C357        C358   1.420       .  A
C357        N362   1.438       .  S
C358        C359   1.409       .  A
C359        C360   1.406       .  A
C359        H363   1.083       .  S
C360        N364   1.438       .  S
N362        H365   1.045       .  S
N362        H366   1.046       .  S
N364        H367   1.045       .  S
N364        H368   1.046       .  S
C373        C374   1.412       .  A
C373        C378   1.407       .  A
C374        C375   1.398       .  A
C374        N379   1.433       .  S
C375        C376   1.399       .  A
C375        H380   1.084       .  S
C376        C381   1.473       .  S
C376        C377   1.406       .  A
C377        C378   1.407       .  A
C377        N382   1.437       .  S
C378        H383   1.083       .  S
N379        H399   1.046       .  S
N379        H400   1.045       .  S
C381        C384   1.402       .  A
C381        C388   1.404       .  A
N382        H397   1.046       .  S
N382        H398   1.045       .  S
C384        C385   1.409       .  A
C384        H389   1.084       .  S
C385        C386   1.414       .  A
C385        N390   1.437       .  S
C386        C387   1.406       .  A
C387        C388   1.398       .  A
C387        H391   1.084       .  S
C388        N392   1.438       .  S
N390        H393   1.045       .  S
N390        H394   1.046       .  S
N392        H395   1.046       .  S
N392        H396   1.045       .  S
C401        C402   1.415       .  A
C401        C406   1.405       .  A
C402        C403   1.405       .  A
C402        N407   1.437       .  S
C403        C404   1.398       .  A
C403        H408   1.084       .  S
C404        C409   1.468       .  S
C404        C405   1.406       .  A
C405        C406   1.398       .  A
C405        N410   1.439       .  S
C406        H411   1.084       .  S
N407        H427   1.045       .  S
N407        H428   1.046       .  S
C409        C412   1.397       .  A
C409        C416   1.409       .  A
N410        H425   1.046       .  S
N410        H426   1.045       .  S
C412        C413   1.395       .  A
C412        H417   1.084       .  S
C413        C414   1.410       .  A
C413        N418   1.434       .  S
C414        C415   1.404       .  A
C415        C416   1.406       .  A
C415        H419   1.084       .  S
C416        N420   1.438       .  S
N418        H421   1.046       .  S
N418        H422   1.046       .  S
N420        H423   1.046       .  S
N420        H424   1.045       .  S
C429        C430   1.417       .  A
C429        C434   1.408   1_556  A
C430        C431   1.409       .  A
C430        N435   1.437       .  S
C431        C432   1.401   1_556  A
C431        H436   1.084       .  S
C432        C437   1.483   1_545  S
C432        C433   1.408       .  A
C433        C434   1.407       .  A
C433        N438   1.438       .  S
C434        H439   1.083       .  S
N435        H455   1.046       .  S
N435        H456   1.046       .  S
C437        C440   1.399       .  A
C437        C444   1.408       .  A
N438        H453   1.045       .  S
N438        H454   1.046       .  S
C440        C441   1.405       .  A
C440        H445   1.084   1_554  S
C441        C442   1.418       .  A
C441        N446   1.438   1_554  S
C442        C443   1.410       .  A
C443        C444   1.410       .  A
C443        H447   1.084       .  S
C444        N448   1.437       .  S
N446        H449   1.045       .  S
N446        H450   1.046       .  S
N448        H451   1.046       .  S
N448        H452   1.045   1_565  S
C457        C458   1.414       .  A
C457        C462   1.408       .  A
C458        C459   1.398       .  A
C458        N463   1.437       .  S
C459        C460   1.399       .  A
C459        H464   1.084       .  S
C460        C465   1.475       .  S
C460        C461   1.406       .  A
C461        C462   1.408       .  A
C461        N466   1.437       .  S
C462        H467   1.083       .  S
N463        H483   1.043       .  S
N463        H484   1.046       .  S
C465        C468   1.403       .  A
C465        C472   1.404       .  A
N466        H481   1.046       .  S
N466        H482   1.046       .  S
C468        C469   1.410       .  A
C468        H473   1.084       .  S
C469        C470   1.414       .  A
C469        N474   1.437       .  S
C470        C471   1.408       .  A
C471        C472   1.397       .  A
C471        H475   1.083       .  S
C472        N476   1.438       .  S
N474        H477   1.045       .  S
N474        H478   1.046       .  S
N476        H479   1.046       .  S
N476        H480   1.045       .  S
C485        C486   1.413       .  A
C485        C490   1.407       .  A
C486        C487   1.407       .  A
C486        N491   1.438       .  S
C487        C488   1.402       .  A
C487        H492   1.084       .  S
C488        C493   1.476       .  S
C488        C489   1.406       .  A
C489        C490   1.402       .  A
C489        N494   1.438       .  S
C490        H495   1.084       .  S
N491        H511   1.046       .  S
N491        H512   1.046       .  S
C493        C496   1.401       .  A
C493        C500   1.406       .  A
N494        H509   1.046       .  S
N494        H510   1.045       .  S
C496        C497   1.403       .  A
C496        H501   1.084       .  S
C497        C498   1.411       .  A
C497        N502   1.437       .  S
C498        C499   1.407       .  A
C499        C500   1.407       .  A
C499        H503   1.084       .  S
C500        N504   1.437       .  S
N502        H505   1.046       .  S
N502        H506   1.045       .  S
N504        H507   1.046       .  S
N504        H508   1.045       .  S
C513        C514   1.412       .  A
C513        C518   1.404       .  A
C514        C515   1.403       .  A
C514        N519   1.439       .  S
C515        C516   1.403       .  A
C515        H520   1.084       .  S
C516        C521   1.492       .  S
C516        C517   1.414       .  A
C517        C518   1.411       .  A
C517        N522   1.437       .  S
C518        H523   1.084       .  S
N519        H539   1.044       .  S
N519        H540   1.046       .  S
C521        C524   1.403       .  A
C521        C528   1.411       .  A
N522        H537   1.046       .  S
N522        H538   1.046       .  S
C524        C525   1.409       .  A
C524        H529   1.083       .  S
C525        C526   1.418       .  A
C525        N530   1.437       .  S
C526        C527   1.407       .  A
C527        C528   1.406       .  A
C527        H531   1.083       .  S
C528        N532   1.438       .  S
N530        H533   1.046       .  S
N530        H534   1.045       .  S
N532        H535   1.046       .  S
N532        H536   1.045       .  S
C541        C542   1.411   1_556  A
C541        C546   1.400       .  A
C542        C543   1.412       .  A
C542        N547   1.437       .  S
C543        C544   1.405   1_554  A
C543        H548   1.084       .  S
C544        C549   1.484   1_556  S
C544        C545   1.410       .  A
C545        C546   1.404       .  A
C545        N550   1.438       .  S
C546        H551   1.084       .  S
N547        H567   1.045       .  S
N547        H568   1.046       .  S
C549        C552   1.402       .  A
C549        C556   1.408   1_455  A
N550        H565   1.046       .  S
N550        H566   1.045       .  S
C552        C553   1.405   1_455  A
C552        H557   1.084       .  S
C553        C554   1.415       .  A
C553        N558   1.433   1_655  S
C554        C555   1.409       .  A
C555        C556   1.409       .  A
C555        H559   1.083       .  S
C556        N560   1.438   1_554  S
N558        H561   1.046       .  S
N558        H562   1.046       .  S
N560        H563   1.046       .  S
N560        H564   1.044       .  S
C569        C570   1.411       .  A
C569        C574   1.409       .  A
C570        C571   1.402       .  A
C570        N575   1.433       .  S
C571        C572   1.402       .  A
C571        H576   1.084       .  S
C572        C577   1.476   1_556  S
C572        C573   1.406   1_556  A
C573        C574   1.405   1_554  A
C573        N578   1.438       .  S
C574        H579   1.083   1_556  S
N575        H595   1.045       .  S
N575        H596   1.046       .  S
C577        C580   1.404   1_554  A
C577        C584   1.407       .  A
N578        H593   1.046       .  S
N578        H594   1.045       .  S
C580        C581   1.411   1_556  A
C580        H585   1.083       .  S
C581        C582   1.411       .  A
C581        N586   1.437   1_554  S
C582        C583   1.401       .  A
C583        C584   1.398       .  A
C583        H587   1.084       .  S
C584        N588   1.438       .  S
N586        H589   1.046       .  S
N586        H590   1.045   1_556  S
N588        H591   1.046       .  S
N588        H592   1.046       .  S
C597        C598   1.409       .  A
C597        C602   1.406       .  A
C598        C599   1.404       .  A
C598        N603   1.432       .  S
C599        C600   1.406       .  A
C599        H604   1.084   1_655  S
C600        C605   1.493   1_655  S
C600        C601   1.414       .  A
C601        C602   1.405       .  A
C601        N606   1.438       .  S
C602        H607   1.084       .  S
N603        H623   1.046       .  S
N603        H624   1.045       .  S
C605        C608   1.404       .  A
C605        C612   1.413       .  A
N606        H621   1.046       .  S
N606        H622   1.046       .  S
C608        C609   1.405       .  A
C608        H613   1.083   1_455  S
C609        C610   1.415       .  A
C609        N614   1.432       .  S
C610        C611   1.407       .  A
C611        C612   1.405       .  A
C611        H615   1.079       .  S
C612        N616   1.439       .  S
N614        H617   1.045       .  S
N614        H618   1.046       .  S
N616        H619   1.046       .  S
N616        H620   1.046       .  S
C625        C626   1.417       .  A
C625        C630   1.403       .  A
C626        C627   1.406       .  A
C626        N631   1.438       .  S
C627        C628   1.398       .  A
C627        H632   1.084       .  S
C628        C633   1.471       .  S
C628        C629   1.408       .  A
C629        C630   1.400       .  A
C629        N634   1.438       .  S
C630        H635   1.084       .  S
N631        H651   1.046       .  S
N631        H652   1.046       .  S
C633        C636   1.397       .  A
C633        C640   1.409       .  A
N634        H649   1.046       .  S
N634        H650   1.046       .  S
C636        C637   1.397       .  A
C636        H641   1.084       .  S
C637        C638   1.415       .  A
C637        N642   1.433       .  S
C638        C639   1.404       .  A
C639        C640   1.406       .  A
C639        H643   1.083       .  S
C640        N644   1.437       .  S
N642        H645   1.046       .  S
N642        H646   1.045       .  S
N644        H647   1.046       .  S
N644        H648   1.045       .  S
C653        C654   1.413       .  A
C653        C658   1.403       .  A
C654        C655   1.396       .  A
C654        N659   1.433       .  S
C655        C656   1.396       .  A
C655        H660   1.084       .  S
C656        C661   1.472       .  S
C656        C657   1.410       .  A
C657        C658   1.409       .  A
C657        N662   1.437       .  S
C658        H663   1.083       .  S
N659        H679   1.046       .  S
N659        H680   1.045       .  S
C661        C664   1.398       .  A
C661        C668   1.407       .  A
N662        H677   1.045       .  S
N662        H678   1.046       .  S
C664        C665   1.406       .  A
C664        H669   1.084       .  S
C665        C666   1.416       .  A
C665        N670   1.438       .  S
C666        C667   1.405       .  A
C667        C668   1.401       .  A
C667        H671   1.084       .  S
C668        N672   1.438       .  S
N670        H673   1.045       .  S
N670        H674   1.045       .  S
N672        H675   1.046       .  S
N672        H676   1.045       .  S
C681        C682   1.412       .  A
C681        C686   1.406       .  A
C682        C683   1.403       .  A
C682        N687   1.432       .  S
C683        C684   1.403   1_655  A
C683        H688   1.084       .  S
C684        C689   1.487       .  S
C684        C685   1.412       .  A
C685        C686   1.406   1_455  A
C685        N690   1.438       .  S
C686        H691   1.083       .  S
N687        H707   1.046       .  S
N687        H708   1.044       .  S
C689        C692   1.403       .  A
C689        C696   1.414       .  A
N690        H705   1.046       .  S
N690        H706   1.046       .  S
C692        C693   1.400       .  A
C692        H697   1.084       .  S
C693        C694   1.408       .  A
C693        N698   1.433       .  S
C694        C695   1.403       .  A
C695        C696   1.410       .  A
C695        H699   1.084       .  S
C696        N700   1.437       .  S
N698        H701   1.046       .  S
N698        H702   1.045       .  S
N700        H703   1.045       .  S
N700        H704   1.046       .  S
C709        C710   1.416       .  A
C709        C714   1.408   1_556  A
C710        C711   1.408   1_655  A
C710        N715   1.438       .  S
C711        C712   1.402   1_556  A
C711        H716   1.084       .  S
C712        C717   1.482       .  S
C712        C713   1.407   1_455  A
C713        C714   1.406       .  A
C713        N718   1.438       .  S
C714        H719   1.083       .  S
N715        H735   1.046       .  S
N715        H736   1.046   1_655  S
C717        C720   1.405   1_554  A
C717        C724   1.409       .  A
N718        H733   1.046       .  S
N718        H734   1.044       .  S
C720        C721   1.412   1_556  A
C720        H725   1.084       .  S
C721        C722   1.410       .  A
C721        N726   1.437   1_554  S
C722        C723   1.401       .  A
C723        C724   1.403       .  A
C723        H727   1.084       .  S
C724        N728   1.439       .  S
N726        H729   1.046       .  S
N726        H730   1.045       .  S
N728        H731   1.045       .  S
N728        H732   1.044       .  S
C737        C738   1.411       .  A
C737        C742   1.403       .  A
C738        C739   1.412       .  A
C738        N743   1.438   1_556  S
C739        C740   1.405       .  A
C739        H744   1.083   1_556  S
C740        C745   1.481   1_556  S
C740        C741   1.407       .  A
C741        C742   1.400       .  A
C741        N746   1.438       .  S
C742        H747   1.084       .  S
N743        H763   1.046       .  S
N743        H764   1.045       .  S
C745        C748   1.402       .  A
C745        C752   1.406   1_554  A
N746        H761   1.046       .  S
N746        H762   1.046       .  S
C748        C749   1.405       .  A
C748        H753   1.084       .  S
C749        C750   1.415       .  A
C749        N754   1.438       .  S
C750        C751   1.409       .  A
C751        C752   1.408   1_554  A
C751        H755   1.083       .  S
C752        N756   1.437       .  S
N754        H757   1.046       .  S
N754        H758   1.045       .  S
N756        H759   1.046       .  S
N756        H760   1.046       .  S
C765        C766   1.417       .  A
C765        C770   1.407   1_556  A
C766        C767   1.412       .  A
C766        N771   1.437       .  S
C767        C768   1.404   1_556  A
C767        H772   1.084       .  S
C768        C773   1.489       .  S
C768        C769   1.408       .  A
C769        C770   1.404       .  A
C769        N774   1.438       .  S
C770        H775   1.083       .  S
N771        H791   1.046       .  S
N771        H792   1.046       .  S
C773        C776   1.402       .  A
C773        C780   1.411       .  A
N774        H789   1.046       .  S
N774        H790   1.045       .  S
C776        C777   1.405       .  A
C776        H781   1.084   1_554  S
C777        C778   1.414       .  A
C777        N782   1.438       .  S
C778        C779   1.406       .  A
C779        C780   1.412       .  A
C779        H783   1.084       .  S
C780        N784   1.437       .  S
N782        H785   1.046   1_554  S
N782        H786   1.046       .  S
N784        H787   1.046       .  S
N784        H788   1.046       .  S
C793        C794   1.410       .  A
C793        C798   1.403       .  A
C794        C795   1.405       .  A
C794        N799   1.438       .  S
C795        C796   1.402       .  A
C795        H800   1.084       .  S
C796        C801   1.472       .  S
C796        C797   1.406       .  A
C797        C798   1.399       .  A
C797        N802   1.438       .  S
C798        H803   1.083       .  S
N799        H819   1.045       .  S
N799        H820   1.046       .  S
C801        C804   1.402       .  A
C801        C808   1.407       .  A
N802        H817   1.046       .  S
N802        H818   1.046       .  S
C804        C805   1.400       .  A
C804        H809   1.084       .  S
C805        C806   1.405       .  A
C805        N810   1.437       .  S
C806        C807   1.404       .  A
C807        C808   1.404       .  A
C807        H811   1.084       .  S
C808        N812   1.437       .  S
N810        H813   1.046       .  S
N810        H814   1.046       .  S
N812        H815   1.046       .  S
N812        H816   1.045       .  S
C821        C822   1.415       .  A
C821        C826   1.404       .  A
C822        C823   1.397       .  A
C822        N827   1.434       .  S
C823        C824   1.397       .  A
C823        H828   1.084       .  S
C824        C829   1.469       .  S
C824        C825   1.408       .  A
C825        C826   1.405       .  A
C825        N830   1.438       .  S
C826        H831   1.083       .  S
N827        H847   1.046       .  S
N827        H848   1.046       .  S
C829        C832   1.398       .  A
C829        C836   1.405       .  A
N830        H845   1.046       .  S
N830        H846   1.045       .  S
C832        C833   1.406       .  A
C832        H837   1.084       .  S
C833        C834   1.418       .  A
C833        N838   1.438       .  S
C834        C835   1.406       .  A
C835        C836   1.398       .  A
C835        H839   1.083       .  S
C836        N840   1.439       .  S
N838        H841   1.046       .  S
N838        H842   1.045       .  S
N840        H843   1.046       .  S
N840        H844   1.046       .  S
