geometry optimzed in LAMMPS
_audit_creation_date              2020-12-01 
_audit_creation_method            'lammps2cif' 
_symmetry_space_group_name_H-M    'P1' 
_symmetry_Int_Tables_number       1 
_symmetry_cell_setting            triclinic 
loop_ 
_symmetry_equiv_pos_as_xyz 
  x,y,z 
_cell_length_a                    44.53577347 
_cell_length_b                    33.930574170231424 
_cell_length_c                    44.06817820093384 
_cell_angle_alpha                 90.01129932477718 
_cell_angle_beta                  110.72894172011728 
_cell_angle_gamma                 89.9560987636486 
loop_ 
_atom_site_label 
_atom_site_type_symbol 
_atom_site_fract_x 
_atom_site_fract_y 
_atom_site_fract_z 
_atom_site_charge 
Fe1        Fe  0.31868321  0.83855614  0.13095801     1.65800
Fe2        Fe  0.37482381  0.85431206  0.09613783     1.73200
Fe3        Fe  0.36397887  0.76325419  0.12155211     1.54400
O4          O  0.37472922  0.76588719  0.17061297    -0.81600
O5          O  0.37973197  0.81209148  0.06567427    -0.79900
O6          O  0.33596528  0.80524497  0.17477690    -0.84100
O7          O  0.28742057  0.79413910  0.10902971    -0.79000
O8          O  0.41130681  0.77511195  0.12770547    -0.80800
O9          O  0.33162053  0.86937136  0.06095600    -0.83500
C10         C  0.29123264  0.75721924  0.11107095     0.97300
C11         C  0.35786388  0.77895026  0.18645205     1.04700
O12         O  0.35277969  0.81897779  0.11688083    -1.12500
O13         O  0.37357429  0.90224164  0.12387505    -0.74900
O14         O  0.34538620  0.88667322  0.15479558    -0.78400
O15         O  0.31858843  0.74151177  0.11704085    -0.79100
C16         C  0.36296915  0.91037651  0.14622981     0.96200
O17         O  0.29699228  0.87034266  0.08710640    -0.77100
O18         O  0.42012316  0.83966602  0.12779645    -0.82300
C19         C  0.36800676  0.77837142  0.05690072     0.98800
C20         C  0.43012533  0.80426405  0.13083418     1.04700
O21         O  0.35396453  0.75825798  0.07232273    -0.77900
C22         C  0.30354295  0.87509301  0.06120270     1.03000
Fe23       Fe  0.17360245  0.84860978  0.36434187     1.65800
Fe24       Fe  0.12460215  0.86024997  0.40754446     1.73200
Fe25       Fe  0.13404068  0.77041250  0.37826936     1.54400
O26         O  0.13446449  0.76926412  0.33212854    -0.81600
O27         O  0.13754720  0.82375084  0.44646690    -0.79900
O28         O  0.14619175  0.82844303  0.31744000    -0.84100
O29         O  0.20069567  0.79825894  0.37056048    -0.79000
O30         O  0.08557424  0.78240315  0.35983277    -0.80800
O31         O  0.16782994  0.88996275  0.43100842    -0.83500
C32         C  0.20360853  0.76568491  0.38535567     0.97300
C33         C  0.13685057  0.79268169  0.31068891     1.04700
O34         O  0.14375162  0.82639218  0.38316833    -1.12500
O35         O  0.10921027  0.90075808  0.37058135    -0.74900
O36         O  0.15155980  0.90387386  0.35549133    -0.78400
O37         O  0.18216690  0.75292847  0.39577804    -0.79100
C38         C  0.12630760  0.91918767  0.35767409     0.96200
O39         O  0.20331628  0.86558682  0.41094473    -0.77100
O40         O  0.07978575  0.83221909  0.39019723    -0.82300
C41         C  0.13235121  0.78729331  0.44684679     0.98800
C42         C  0.06875294  0.80195142  0.37266947     1.04700
O43         O  0.13086237  0.76470479  0.42341685    -0.77900
C44         C  0.19665223  0.88132572  0.43412479     1.03000
Fe45       Fe  0.42224435  0.64050041  0.36638067     1.65800
Fe46       Fe  0.37041084  0.63691524  0.40783495     1.73200
Fe47       Fe  0.38505513  0.72348892  0.37772918     1.54400
O48         O  0.43062273  0.73901378  0.37808886    -0.81600
O49         O  0.32469429  0.65586102  0.37925784    -0.79900
O50         O  0.45677125  0.68312816  0.38067520    -0.84100
O51         O  0.40133732  0.66956694  0.32074588    -0.79000
O52         O  0.39921698  0.73234104  0.42728634    -0.80800
O53         O  0.36490618  0.58612194  0.38139874    -0.83500
C54         C  0.38210487  0.69902294  0.31030456     0.97300
C55         C  0.45565788  0.72020859  0.37923915     1.04700
O56         O  0.39223992  0.66668091  0.38327091    -1.12500
O57         O  0.41428093  0.61887276  0.44029432    -0.74900
O58         O  0.44703139  0.61381623  0.41210879    -0.78400
O59         O  0.37014084  0.71796862  0.32825231    -0.79100
C60         C  0.44186694  0.61196102  0.43896421     0.96200
O61         O  0.39304532  0.59166079  0.34901764    -0.77100
O62         O  0.37217197  0.68233149  0.43804972    -0.82300
C63         C  0.31782255  0.69244360  0.37703309     0.98800
C64         C  0.38527833  0.71570174  0.44455834     1.04700
O65         O  0.33825884  0.71825470  0.37623009    -0.77900
C66         C  0.37434246  0.57252304  0.35963554     1.03000
Fe67       Fe  0.07071867  0.65266295  0.13458571     1.65800
Fe68       Fe  0.12090767  0.63894836  0.09288570     1.73200
Fe69       Fe  0.11205219  0.72928104  0.12042765     1.54400
O70         O  0.06887150  0.75000897  0.12321283    -0.81600
O71         O  0.16754439  0.65515926  0.12109403    -0.79900
O72         O  0.03848154  0.69706872  0.11608156    -0.84100
O73         O  0.09261401  0.68535599  0.17794147    -0.79000
O74         O  0.09491810  0.73469317  0.07073715    -0.80800
O75         O  0.12349914  0.58978889  0.12116374    -0.83500
C76         C  0.11453822  0.71199029  0.18775186     0.97300
C77         C  0.04263001  0.73358236  0.12090378     1.04700
O78         O  0.10163510  0.67318522  0.11675636    -1.12500
O79         O  0.07603052  0.62300236  0.06124978    -0.74900
O80         O  0.04496947  0.62211340  0.09133642    -0.78400
O81         O  0.12919993  0.72542866  0.16986677    -0.79100
C82         C  0.04886508  0.61786754  0.06406344     0.96200
O83         O  0.09835310  0.60386478  0.15525018    -0.77100
O84         O  0.12038055  0.68251201  0.06095684    -0.82300
C85         C  0.17641112  0.69074272  0.12060091     0.98800
C86         C  0.10691951  0.71565756  0.05287815     1.04700
O87         O  0.15757625  0.71946338  0.11912652    -0.77900
C88         C  0.11429360  0.58039424  0.14429562     1.03000
Fe89       Fe  0.30483179  0.14384124  0.14338094     1.65800
Fe90       Fe  0.35032857  0.13277965  0.09654017     1.73200
Fe91       Fe  0.34142000  0.22326843  0.12613959     1.54400
O92         O  0.29324172  0.23941100  0.11359580    -0.81600
O93         O  0.39497785  0.15987743  0.11278358    -0.79900
O94         O  0.27741308  0.19310887  0.13990617    -0.84100
O95         O  0.33442692  0.16396334  0.18903591    -0.79000
O96         O  0.33813041  0.22939561  0.07865526    -0.80800
O97         O  0.36724646  0.09212703  0.13332431    -0.83500
C98         C  0.34504544  0.19917108  0.19596200     0.97300
C99         C  0.27400812  0.22667746  0.12684422     1.04700
O100        O  0.33267081  0.16677892  0.12226202    -1.12500
O101        O  0.30710851  0.10278284  0.07484988    -0.74900
O102        O  0.27362744  0.12654965  0.09776151    -0.78400
O103        O  0.34668935  0.22320090  0.17444775    -0.79100
C104        C  0.27880922  0.11083180  0.07370371     0.96200
O105        O  0.32703701  0.08939315  0.15152686    -0.77100
O106        O  0.33629726  0.16952623  0.05730406    -0.82300
C107        C  0.40683439  0.19096835  0.12859582     0.98800
C108        C  0.33713683  0.20667603  0.05540954     1.04700
O109        O  0.39044722  0.21448930  0.13907871    -0.77900
C110        C  0.35184820  0.07443128  0.14849889     1.03000
Fe111      Fe  0.16044844  0.16142371  0.37998538     1.65800
Fe112      Fe  0.10220700  0.14273830  0.41123693     1.73200
Fe113      Fe  0.10840650  0.23237850  0.38209395     1.54400
O114        O  0.15249216  0.25686384  0.38424172    -0.81600
O115        O  0.05656454  0.15340615  0.37800608    -0.79900
O116        O  0.18766971  0.20888553  0.40293253    -0.84100
O117        O  0.14336327  0.19351002  0.33534414    -0.79000
O118        O  0.11774732  0.24212517  0.43054086    -0.80800
O119        O  0.10723372  0.09410054  0.38532232    -0.83500
C120        C  0.11878602  0.21555823  0.32125908     0.97300
C121        C  0.18116161  0.24415602  0.39399825     1.04700
O122        O  0.12347192  0.17828377  0.39062197    -1.12500
O123        O  0.14499760  0.13165771  0.44782636    -0.74900
O124        O  0.18199862  0.13129265  0.42450573    -0.78400
O125        O  0.09807612  0.22287863  0.33412606    -0.79100
C126        C  0.17380171  0.12760031  0.44941255     0.96200
O127        O  0.13773012  0.11063963  0.35671475    -0.77100
O128        O  0.09504251  0.18687406  0.43933920    -0.82300
C129        C  0.04433353  0.18776126  0.37439849     0.98800
C130        C  0.10387766  0.22230109  0.44629830     1.04700
O131        O  0.06142846  0.21842360  0.37700105    -0.77900
C132        C  0.12050206  0.08590802  0.36486862     1.03000
Fe133      Fe  0.40859440  0.33117291  0.37670836     1.65800
Fe134      Fe  0.35360997  0.34762151  0.41235774     1.73200
Fe135      Fe  0.35852207  0.25827363  0.38097644     1.54400
O136        O  0.34565883  0.26846982  0.33244351    -0.81600
O137        O  0.35045516  0.30270685  0.44226540    -0.79900
O138        O  0.38918680  0.30103806  0.33172547    -0.84100
O139        O  0.43670024  0.28349313  0.39674463    -0.79000
O140        O  0.31215203  0.27076480  0.37953172    -0.80800
O141        O  0.39720002  0.36105790  0.44689088    -0.83500
C142        C  0.43007286  0.24842134  0.38733200     0.97300
C143        C  0.36497678  0.27835783  0.31832297     1.04700
O144        O  0.37344662  0.31280824  0.38968107    -1.12500
O145        O  0.35541665  0.39695582  0.38548721    -0.74900
O146        O  0.38506162  0.38228043  0.35561730    -0.78400
O147        O  0.40186563  0.23480043  0.38004289    -0.79100
C148        C  0.36796133  0.40621330  0.36465860     0.96200
O149        O  0.43224632  0.35985748  0.42136315    -0.77100
O150        O  0.30746071  0.33571633  0.38108620    -0.82300
C151        C  0.36032823  0.26740085  0.44825772     0.98800
C152        C  0.29552755  0.30141098  0.37879302     1.04700
O153        O  0.37083565  0.24721718  0.42974356    -0.77900
C154        C  0.42546651  0.36548863  0.44692198     1.03000
Fe155      Fe  0.05542472  0.34436153  0.14498177     1.65800
Fe156      Fe  0.09874364  0.35567612  0.09701077     1.73200
Fe157      Fe  0.09249623  0.26541337  0.12772137     1.54400
O158        O  0.09963062  0.26575186  0.17649152    -0.81600
O159        O  0.07977155  0.32003906  0.05766664    -0.79900
O160        O  0.08695063  0.32555085  0.19024234    -0.84100
O161        O  0.02897775  0.29442275  0.14328972    -0.79000
O162        O  0.14112503  0.27542414  0.13904271    -0.80800
O163        O  0.05695242  0.38865809  0.08043999    -0.83500
C164        C  0.02525796  0.26104565  0.12972133     0.97300
C165        C  0.09863141  0.29074840  0.19761421     1.04700
O166        O  0.08284499  0.32150365  0.12372173    -1.12500
O167        O  0.11887047  0.39417626  0.13477635    -0.74900
O168        O  0.07725045  0.39955916  0.15072425    -0.78400
O169        O  0.04458327  0.24831878  0.11653804    -0.79100
C170        C  0.10248304  0.41385513  0.14786752     0.96200
O171        O  0.02257768  0.35963059  0.09920169    -0.77100
O172        O  0.14231085  0.32684629  0.10812648    -0.82300
C173        C  0.08262828  0.28307005  0.05578439     0.98800
C174        C  0.15554145  0.29706324  0.12494359     1.04700
O175        O  0.08755878  0.26010984  0.07980461    -0.77900
C176        C  0.02868067  0.37740169  0.07654297     1.03000
C177        C  0.44876186  0.38689399  0.00728799    -0.12200
C178        C  0.45111278  0.37555120  0.47885220     0.04800
C179        C  0.48427137  0.37370008  0.48397198    -0.07500
C180        C  0.01265504  0.37932333  0.01633270    -0.08300
C181        C  0.00351030  0.38260476  0.04375466    -0.02800
C182        C  0.47152470  0.38776808  0.03899318     0.04000
N183        N  0.46105533  0.39538826  0.06555781     0.66500
H184        H  0.42370687  0.39102542  0.00424776     0.15400
H185        H  0.03781573  0.37599949  0.01945324     0.15100
N186        N  0.99489850  0.36261562  0.45796854     0.74200
O187        O  0.45205909  0.36720490  0.07895831    -0.39200
O188        O  0.45538862  0.43036792  0.07166001    -0.39200
O189        O  0.50475779  0.39454732  0.44491529    -0.39900
O190        O  0.99912813  0.32682564  0.45275840    -0.39900
C191        C  0.08970794  0.28708819  0.24961995    -0.12200
C192        C  0.10843542  0.27628037  0.23146778     0.04800
C193        C  0.13173885  0.24620027  0.24354815    -0.07500
C194        C  0.13481271  0.22664087  0.27261383    -0.08300
C195        C  0.11483277  0.23612135  0.29006539    -0.02800
C196        C  0.09246581  0.26756901  0.27837418     0.04000
N197        N  0.07159816  0.27988697  0.29482049     0.66500
H198        H  0.07140113  0.30966961  0.24056765     0.15400
H199        H  0.15278910  0.20366518  0.28135637     0.15100
N200        N  0.15255771  0.23526655  0.22662081     0.74200
O201        O  0.08132313  0.30497616  0.31733581    -0.39200
O202        O  0.04194973  0.27284115  0.28212484    -0.39200
O203        O  0.17889315  0.25309361  0.23268372    -0.39900
O204        O  0.14773329  0.20343504  0.21080662    -0.39900
C205        C  0.09227642  0.29270507  0.00449059    -0.12200
C206        C  0.08459555  0.26686816  0.02565830     0.04800
C207        C  0.08558934  0.22587108  0.02094049    -0.07500
C208        C  0.08455437  0.21501848  0.49182246    -0.08300
C209        C  0.09535092  0.24018229  0.47248747    -0.02800
C210        C  0.09437183  0.28122537  0.47663106     0.04000
N211        N  0.10416365  0.30812674  0.45698771     0.66500
H212        H  0.09196405  0.32439256  0.00777170     0.15400
H213        H  0.08407527  0.18330401  0.48852420     0.15100
N214        N  0.07688720  0.19811735  0.04082177     0.74200
O215        O  0.08439096  0.31915733  0.42994954    -0.39200
O216        O  0.13281519  0.32012849  0.46629333    -0.39200
O217        O  0.04811159  0.18684560  0.03257728    -0.39900
O218        O  0.09855674  0.17935188  0.06245027    -0.39900
C219        C  0.20764092  0.27534057  0.35930855    -0.12200
C220        C  0.20728463  0.26872267  0.39070420     0.04800
C221        C  0.23490841  0.27768560  0.41761541    -0.07500
C222        C  0.26257801  0.29148072  0.41280947    -0.08300
C223        C  0.26362524  0.29570132  0.38146969    -0.02800
C224        C  0.23570280  0.28798010  0.35448900     0.04000
N225        N  0.23617507  0.28988331  0.32228046     0.66500
H226        H  0.18680586  0.26739972  0.33831246     0.15400
H227        H  0.28409000  0.29679678  0.43386099     0.15100
N228        N  0.23557583  0.27138741  0.44990252     0.74200
O229        O  0.24593784  0.26055964  0.31075330    -0.39200
O230        O  0.22122036  0.31715608  0.30354299    -0.39200
O231        O  0.25119433  0.24274348  0.46624448    -0.39900
O232        O  0.22535845  0.29794179  0.46382142    -0.39900
C233        C  0.99912240  0.17763005  0.39476296    -0.12200
C234        C  0.01035193  0.19409400  0.37134315     0.04800
C235        C  0.49163199  0.22427427  0.35008481    -0.07500
C236        C  0.46416419  0.23888624  0.35465656    -0.08300
C237        C  0.45508010  0.22559484  0.38026617    -0.02800
C238        C  0.47265230  0.19504177  0.40028914     0.04000
N239        N  0.46486918  0.18223352  0.42748272     0.66500
H240        H  0.01314230  0.15505997  0.41110103     0.15400
H241        H  0.45082342  0.26258057  0.33915391     0.15100
N242        N  0.50159595  0.24178304  0.32573641     0.74200
O243        O  0.44153217  0.15916724  0.42325976    -0.39200
O244        O  0.47818801  0.19836286  0.45476912    -0.39200
O245        O  0.99073075  0.23089877  0.29829476    -0.39900
O246        O  0.51501847  0.27509602  0.33102265    -0.39900
C247        C  0.34445880  0.22222673  0.28020005    -0.12200
C248        C  0.36058978  0.25877002  0.28677658     0.04800
C249        C  0.37475721  0.27275178  0.26490267    -0.07500
C250        C  0.37134030  0.25124509  0.23670418    -0.08300
C251        C  0.35410831  0.21541322  0.22948503    -0.02800
C252        C  0.34160362  0.20028794  0.25235717     0.04000
N253        N  0.32571081  0.16297244  0.24772540     0.66500
H254        H  0.33455000  0.20978535  0.29732175     0.15400
H255        H  0.38147507  0.26357559  0.21971768     0.15100
N256        N  0.39155942  0.30944196  0.27017342     0.74200
O257        O  0.34221533  0.13178375  0.25284971    -0.39200
O258        O  0.29668601  0.16119841  0.24541176    -0.39200
O259        O  0.42173492  0.30964761  0.27843058    -0.39900
O260        O  0.37607459  0.34110540  0.26118983    -0.39900
C261        C  0.34007003  0.21332527  0.47284594    -0.12200
C262        C  0.35623628  0.24930579  0.47654901     0.04800
C263        C  0.36178074  0.27167831  0.50485307    -0.07500
C264        C  0.35837338  0.26006151  0.03112874    -0.08300
C265        C  0.34165896  0.22414968  0.02674175    -0.02800
C266        C  0.33609043  0.20265280  0.99772584     0.04000
N267        N  0.31859674  0.16643605  0.99142180     0.66500
H268        H  0.33477986  0.19655985  0.45053685     0.15400
H269        H  0.36432111  0.27632052  0.05374129     0.15100
N270        N  0.38035037  0.30706224  0.51044246     0.74200
O271        O  0.28242794  0.16189517  0.48273011    -0.39200
O272        O  0.33058565  0.13653396  0.98297012    -0.39200
O273        O  0.36718967  0.33979901  0.51124680    -0.39900
O274        O  0.41869049  0.30701986  0.02214286    -0.39900
C275        C  0.45117397  0.19461758  0.10639798    -0.12200
C276        C  0.44020703  0.20222450  0.13219246     0.04800
C277        C  0.45944297  0.22543728  0.15835712    -0.07500
C278        C  0.98705480  0.24324960  0.15705434    -0.08300
C279        C  0.99749297  0.23730103  0.13073033    -0.02800
C280        C  0.47953973  0.21183032  0.10536684     0.04000
N281        N  0.48773193  0.20666575  0.07707657     0.66500
H282        H  0.43647425  0.17737891  0.08570675     0.15400
H283        H  0.00070775  0.26215667  0.17708001     0.15100
N284        N  0.45016789  0.23307037  0.18571850     0.74200
O285        O  0.50225552  0.17585830  0.07396383    -0.39200
O286        O  0.97696415  0.22749521  0.05337271    -0.39200
O287        O  0.46021007  0.21081694  0.21019543    -0.39900
O288        O  0.43759483  0.26576710  0.18797493    -0.39900
C289        C  0.22793455  0.27268910  0.10115783    -0.12200
C290        C  0.24659343  0.25066547  0.12808785     0.04800
C291        C  0.23685442  0.24834890  0.15536596    -0.07500
C292        C  0.20813196  0.26571478  0.15451270    -0.08300
C293        C  0.18840531  0.28573270  0.12693495    -0.02800
C294        C  0.19891859  0.28998882  0.10022981     0.04000
N295        N  0.17889688  0.30795912  0.07069050     0.66500
H296        H  0.23483786  0.27443265  0.07990024     0.15400
H297        H  0.20068084  0.26232645  0.17532836     0.15100
N298        N  0.25544055  0.22735514  0.18395092     0.74200
O299        O  0.18135334  0.34443267  0.06652684    -0.39200
O300        O  0.16439995  0.28643441  0.04661928    -0.39200
O301        O  0.27585206  0.24572008  0.20697125    -0.39900
O302        O  0.24652710  0.19346011  0.18897451    -0.39900
C303        C  0.22214268  0.12437639  0.03868143    -0.12200
C304        C  0.25122256  0.10564075  0.04219786     0.04800
C305        C  0.25455844  0.08865445  0.01407777    -0.07500
C306        C  0.22459757  0.09509523  0.48695654    -0.08300
C307        C  0.19844160  0.12055136  0.48229701    -0.02800
C308        C  0.19581371  0.13983517  0.50975580     0.04000
N309        N  0.17092865  0.16793167  0.50652373     0.66500
H310        H  0.21848484  0.13743719  0.05957692     0.15400
H311        H  0.22673160  0.07933678  0.46639987     0.15100
N312        N  0.28137803  0.06404603  0.01659223     0.74200
O313        O  0.14880136  0.15956665  0.51706039    -0.39200
O314        O  0.17481941  0.20326852  0.49978587    -0.39200
O315        O  0.27986058  0.02760802  0.02157299    -0.39900
O316        O  0.30374755  0.07701377  0.00813747    -0.39900
C317        C  0.13696384  0.47253564  0.14996046    -0.12200
C318        C  0.11104380  0.45592420  0.15665124     0.04800
C319        C  0.09114079  0.48139901  0.16679818    -0.07500
C320        C  0.09547006  0.52227655  0.16668312    -0.08300
C321        C  0.11877225  0.53887726  0.15589692    -0.02800
C322        C  0.14094054  0.51346272  0.14942591     0.04000
N323        N  0.16662020  0.52871532  0.14058493     0.66500
H324        H  0.15324266  0.45380466  0.14303168     0.15400
H325        H  0.07822847  0.54112206  0.17198724     0.15100
N326        N  0.06443204  0.46685581  0.17424901     0.74200
O327        O  0.19179746  0.54098434  0.16239173    -0.39200
O328        O  0.16638455  0.52383737  0.11210746    -0.39200
O329        O  0.06657591  0.46420559  0.20349926    -0.39900
O330        O  0.03714211  0.46503653  0.15210673    -0.39900
C331        C  0.38880195  0.50788790  0.34211713    -0.12200
C332        C  0.36606869  0.53096510  0.34942376     0.04800
C333        C  0.33994226  0.51181613  0.35430791    -0.07500
C334        C  0.33932385  0.47063297  0.35592168    -0.08300
C335        C  0.36433615  0.44766361  0.35282423    -0.02800
C336        C  0.38837766  0.46664322  0.34403614     0.04000
N337        N  0.41487037  0.44515300  0.34121116     0.66500
H338        H  0.40910356  0.52188679  0.33830747     0.15400
H339        H  0.32011413  0.45669629  0.36178641     0.15100
N340        N  0.31492379  0.53378318  0.35979877     0.74200
O341        O  0.41516949  0.43658003  0.31346126    -0.39200
O342        O  0.44015984  0.44115729  0.36573579    -0.39200
O343        O  0.29085378  0.54453500  0.33590043    -0.39900
O344        O  0.31389556  0.53568290  0.38801927    -0.39900
C345        C  0.46341872  0.61399990  0.99953117    -0.12200
C346        C  0.46900703  0.60478382  0.47093839     0.04800
C347        C  0.50144043  0.60035235  0.47363889    -0.07500
C348        C  0.02622429  0.59869190  0.00488997    -0.08300
C349        C  0.02069352  0.60921253  0.03348847    -0.02800
C350        C  0.48833027  0.61515928  0.03003296     0.04000
N351        N  0.48052976  0.62590169  0.05771451     0.66500
H352        H  0.43930117  0.62071329  0.99868072     0.15400
H353        H  0.05050135  0.59250936  0.00597001     0.15100
N354        N  0.50998606  0.59626329  0.44551788     0.74200
O355        O  0.47845901  0.66186627  0.06402105    -0.39200
O356        O  0.46991123  0.60010746  0.07191613    -0.39200
O357        O  0.52348530  0.62463453  0.43701424    -0.39900
O358        O  0.00840599  0.55555514  0.43669052    -0.39900
C359        C  0.14215153  0.98469259  0.34224581    -0.12200
C360        C  0.11879071  0.96138867  0.34839775     0.04800
C361        C  0.09201892  0.98063519  0.35199508    -0.07500
C362        C  0.09157133  0.02179276  0.35404586    -0.08300
C363        C  0.11717214  0.04476543  0.35237190    -0.02800
C364        C  0.14167855  0.02594268  0.34431847     0.04000
N365        N  0.16827245  0.04761646  0.34198803     0.66500
H366        H  0.16269296  0.97087281  0.33877144     0.15400
H367        H  0.07187002  0.03570723  0.35909585     0.15100
N368        N  0.06612338  0.95893936  0.35591291     0.74200
O369        O  0.19276309  0.05304816  0.36707940    -0.39200
O370        O  0.16973654  0.05464290  0.31443226    -0.39200
O371        O  0.06383869  0.95643343  0.38359027    -0.39900
O372        O  0.04275712  0.94861405  0.33116903    -0.39900
C373        C  0.13485087  0.76971452  0.22486068    -0.12200
C374        C  0.12149553  0.73137677  0.21996684     0.04800
C375        C  0.11190446  0.71492109  0.24442976    -0.07500
C376        C  0.11510408  0.73692969  0.27228364    -0.08300
C377        C  0.12932528  0.77479412  0.27775466    -0.02800
C378        C  0.13903760  0.79120981  0.25336249     0.04000
N379        N  0.15383526  0.82912398  0.25731471     0.66500
H380        H  0.14197076  0.78351633  0.20624531     0.15400
H381        H  0.10759819  0.72305855  0.29061035     0.15100
N382        N  0.10086981  0.67503263  0.24252289     0.74200
O383        O  0.18404089  0.83177150  0.26882146    -0.39200
O384        O  0.13729464  0.85882979  0.24413751    -0.39200
O385        O  0.11965402  0.64727511  0.24224486    -0.39900
O386        O  0.07538376  0.66728942  0.24769589    -0.39900
C387        C  0.12739276  0.72943657  0.47812397    -0.12200
C388        C  0.12577472  0.77042401  0.47452581     0.04800
C389        C  0.11463591  0.79350013  0.49528638    -0.07500
C390        C  0.10721298  0.77459334  0.02029813    -0.08300
C391        C  0.10904241  0.73360151  0.02349051    -0.02800
C392        C  0.11817885  0.71090373  0.00125955     0.04000
N393        N  0.11801511  0.66874018  0.00168704     0.66500
H394        H  0.13490328  0.71106719  0.46189812     0.15400
H395        H  0.09991666  0.79233597  0.03701797     0.15100
N396        N  0.10900108  0.83505807  0.49076633     0.74200
O397        O  0.09218214  0.65051244  0.98732614    -0.39200
O398        O  0.14425886  0.65011962  0.01091553    -0.39200
O399        O  0.08772521  0.84743279  0.46513895    -0.39900
O400        O  0.11936012  0.85791336  0.51485162    -0.39900
C401        C  0.23232505  0.70356277  0.37942376    -0.12200
C402        C  0.23333999  0.74322773  0.38920444     0.04800
C403        C  0.26226582  0.76420589  0.39625523    -0.07500
C404        C  0.28843077  0.74687389  0.39129771    -0.08300
C405        C  0.28752769  0.70785879  0.38013093    -0.02800
C406        C  0.25936261  0.68554078  0.37536565     0.04000
N407        N  0.25741612  0.64526019  0.36548500     0.66500
H408        H  0.21013118  0.68706314  0.37356323     0.15400
H409        H  0.31005504  0.76448436  0.39696013     0.15100
N410        N  0.26535422  0.80374484  0.40824573     0.74200
O411        O  0.26466815  0.61841303  0.38667131    -0.39200
O412        O  0.24322212  0.63643034  0.33604856    -0.39200
O413        O  0.27348304  0.80960779  0.43834977    -0.39900
O414        O  0.26603603  0.83199103  0.38987252    -0.39900
C415        C  0.03170811  0.74510485  0.36195012    -0.12200
C416        C  0.03694204  0.78511643  0.37029121     0.04800
C417        C  0.51439574  0.80317461  0.38115035    -0.07500
C418        C  0.48835077  0.78209958  0.38429230    -0.08300
C419        C  0.48409495  0.74166553  0.37698853    -0.02800
C420        C  0.50615970  0.72270134  0.36518262     0.04000
N421        N  0.50439976  0.68141000  0.35813737     0.66500
H422        H  0.04848673  0.72887059  0.35382515     0.15400
H423        H  0.47149239  0.79750194  0.39284879     0.15100
N424        N  0.51776572  0.84399518  0.38967517     0.74200
O425        O  0.99665379  0.67089824  0.33052148    -0.39200
O426        O  0.52064297  0.65793369  0.37994000    -0.39200
O427        O  0.01042256  0.87096364  0.36773224    -0.39900
O428        O  0.52110284  0.85424947  0.41821440    -0.39900
C429        C  0.34514669  0.96777717  0.17040568    -0.12200
C430        C  0.36839475  0.95086872  0.15973000     0.04800
C431        C  0.39170098  0.97569662  0.15472136    -0.07500
C432        C  0.38782709  0.01657132  0.15462650    -0.08300
C433        C  0.36134859  0.03348184  0.15999332    -0.02800
C434        C  0.34151690  0.00874375  0.17079416     0.04000
N435        N  0.31580105  0.02425131  0.17944946     0.66500
H436        H  0.32756916  0.94925800  0.17541441     0.15400
H437        H  0.40450263  0.03494801  0.14801337     0.15100
N438        N  0.41819403  0.95986529  0.14750942     0.74200
O439        O  0.28755742  0.02376412  0.15898336    -0.39200
O440        O  0.32025474  0.03084097  0.20890540    -0.39200
O441        O  0.41992226  0.96519743  0.11982895    -0.39900
O442        O  0.44228282  0.94672027  0.17023943    -0.39900
C443        C  0.39281826  0.74039401  0.23427175    -0.12200
C444        C  0.36360129  0.76027233  0.21888000     0.04800
C445        C  0.33964882  0.75730638  0.23292098    -0.07500
C446        C  0.34536266  0.73505621  0.26143960    -0.08300
C447        C  0.37466349  0.71509574  0.27674931    -0.02800
C448        C  0.39850494  0.71818953  0.26264024     0.04000
N449        N  0.42966202  0.70165500  0.27806722     0.66500
H450        H  0.41180387  0.74210908  0.22422614     0.15400
H451        H  0.32679259  0.73397962  0.27207263     0.15100
N452        N  0.30920213  0.77609346  0.21836212     0.74200
O453        O  0.43432065  0.66584255  0.27337487    -0.39200
O454        O  0.45340379  0.72448609  0.28917138    -0.39200
O455        O  0.28583996  0.75679790  0.19947583    -0.39900
O456        O  0.30427465  0.80924754  0.22871352    -0.39900
C457        C  0.40244613  0.76639407  0.02500347    -0.12200
C458        C  0.37210310  0.76302219  0.02792710     0.04800
C459        C  0.34605629  0.74779762  0.00239635    -0.07500
C460        C  0.35063648  0.73357021  0.47470118    -0.08300
C461        C  0.38125030  0.73529496  0.47217401    -0.02800
C462        C  0.40722920  0.75114784  0.49746726     0.04000
N463        N  0.43891760  0.75064399  0.49635632     0.66500
H464        H  0.42279078  0.77803842  0.04510681     0.15400
H465        H  0.33040129  0.72105890  0.45507566     0.15100
N466        N  0.31458020  0.74626692  0.00416624     0.74200
O467        O  0.44983965  0.78700397  0.98918144    -0.39200
O468        O  0.45428161  0.71864042  0.50014863    -0.39200
O469        O  0.30084362  0.77753445  0.00780926    -0.39900
O470        O  0.30036106  0.71438505  0.50402497    -0.39900
C471        C  0.47596158  0.75931694  0.15150128    -0.12200
C472        C  0.46373347  0.79433768  0.13497763     0.04800
C473        C  0.48011426  0.81215742  0.11623586    -0.07500
C474        C  0.00662883  0.79319013  0.11227124    -0.08300
C475        C  0.01673524  0.75625746  0.12669783    -0.02800
C476        C  0.50148375  0.73966103  0.14697749     0.04000
N477        N  0.51144851  0.70281681  0.16311507     0.66500
H478        H  0.46394434  0.74532593  0.16624647     0.15400
H479        H  0.01828010  0.80607643  0.09677195     0.15100
N480        N  0.46860420  0.84789123  0.09883004     0.74200
O481        O  0.52735426  0.70268354  0.19314649    -0.39200
O482        O  0.99920614  0.67240422  0.15126796    -0.39200
O483        O  0.48287800  0.87987588  0.10947065    -0.39900
O484        O  0.44840661  0.84647517  0.07029728    -0.39900
C485        C  0.26523486  0.70336508  0.13212599    -0.12200
C486        C  0.26282490  0.73274259  0.10870324     0.04800
C487        C  0.23209780  0.74360300  0.08730123    -0.07500
C488        C  0.20477396  0.72761087  0.09102643    -0.08300
C489        C  0.20693548  0.70075178  0.11595541    -0.02800
C490        C  0.23750010  0.68734505  0.13592802     0.04000
N491        N  0.24081794  0.66039861  0.16179869     0.66500
H492        H  0.28869418  0.69501684  0.14916735     0.15400
H493        H  0.18137590  0.73754182  0.07480242     0.15100
N494        N  0.22818199  0.77249540  0.06261509     0.74200
O495        O  0.24564104  0.62433238  0.15824420    -0.39200
O496        O  0.24377240  0.67336775  0.18954791    -0.39200
O497        O  0.22469388  0.76155690  0.03420136    -0.39900
O498        O  0.22164468  0.80756787  0.06751250    -0.39900
C499        C  0.24500926  0.88341910  0.02771017    -0.12200
C500        C  0.27705223  0.88485501  0.02946186     0.04800
C501        C  0.28261409  0.89035042  0.99985293    -0.07500
C502        C  0.25515312  0.89115078  0.46806252    -0.08300
C503        C  0.22315193  0.88779276  0.46640072    -0.02800
C504        C  0.21917452  0.88464491  0.99788203     0.04000
N505        N  0.18773942  0.87803028  0.99839260     0.66500
H506        H  0.23972377  0.87915508  0.04972033     0.15400
H507        H  0.26027631  0.89345009  0.44579626     0.15100
N508        N  0.31289292  0.89303313  0.49745220     0.74200
O509        O  0.18159398  0.84532182  0.00847483    -0.39200
O510        O  0.16799462  0.90795935  0.49470938    -0.39200
O511        O  0.32738679  0.86521776  0.99075091    -0.39900
O512        O  0.32569626  0.92652418  0.49922213    -0.39900
Fe513      Fe  0.31740397  0.83975175  0.62935148     1.65800
Fe514      Fe  0.37339521  0.85602107  0.59437319     1.73200
Fe515      Fe  0.36390190  0.76521117  0.62116563     1.54400
O516        O  0.37495423  0.76916811  0.67013516    -0.81600
O517        O  0.37871769  0.81318954  0.56437280    -0.79900
O518        O  0.33521173  0.80730070  0.67359527    -0.84100
O519        O  0.28677418  0.79449371  0.60787864    -0.79000
O520        O  0.41113142  0.77781081  0.62678434    -0.80800
O521        O  0.33006233  0.87004285  0.55913701    -0.83500
C522        C  0.29110989  0.75769716  0.61090806     0.97300
C523        C  0.35775732  0.78189493  0.68572503     1.04700
O524        O  0.35186021  0.82065076  0.61561356    -1.12500
O525        O  0.37137708  0.90446494  0.62155574    -0.74900
O526        O  0.34326277  0.88869362  0.65252068    -0.78400
O527        O  0.31877943  0.74257583  0.61740376    -0.79100
C528        C  0.36037630  0.91275841  0.64363554     0.96200
O529        O  0.29537074  0.87071874  0.58521121    -0.77100
O530        O  0.41896478  0.84252573  0.62605525    -0.82300
C531        C  0.36740002  0.77910654  0.55622460     0.98800
C532        C  0.42950023  0.80735154  0.62941937     1.04700
O533        O  0.35363561  0.75919390  0.57202790    -0.77900
C534        C  0.30195208  0.87547608  0.55933758     1.03000
Fe535      Fe  0.17481370  0.84990575  0.86550080     1.65800
Fe536      Fe  0.12579273  0.86145127  0.90880411     1.73200
Fe537      Fe  0.13519869  0.77166935  0.87921455     1.54400
O538        O  0.13541803  0.77068801  0.83302499    -0.81600
O539        O  0.13797553  0.82456166  0.94747214    -0.79900
O540        O  0.14735067  0.82983908  0.81853247    -0.84100
O541        O  0.20186058  0.79970036  0.87165654    -0.79000
O542        O  0.08675383  0.78370617  0.86094389    -0.80800
O543        O  0.16927366  0.89041646  0.93286516    -0.83500
C544        C  0.20474204  0.76702223  0.88624005     0.97300
C545        C  0.13770985  0.79420898  0.81162271     1.04700
O546        O  0.14493908  0.82765816  0.88431695    -1.12500
O547        O  0.11083871  0.90253420  0.87220920    -0.74900
O548        O  0.15271367  0.90493269  0.85632080    -0.78400
O549        O  0.18329620  0.75407737  0.89656531    -0.79100
C550        C  0.12748392  0.92030995  0.85842762     0.96200
O551        O  0.20461347  0.86684478  0.91223484    -0.77100
O552        O  0.08080962  0.83394663  0.89088261    -0.82300
C553        C  0.13309371  0.78801069  0.94768405     0.98800
C554        C  0.06983863  0.80356085  0.87348343     1.04700
O555        O  0.13210666  0.76564020  0.92429982    -0.77900
C556        C  0.19807488  0.88196712  0.93573189     1.03000
Fe557      Fe  0.42352880  0.64467374  0.86622339     1.65800
Fe558      Fe  0.37116780  0.64030057  0.90686634     1.73200
Fe559      Fe  0.38569031  0.72723921  0.87731454     1.54400
O560        O  0.43120718  0.74322913  0.87778623    -0.81600
O561        O  0.32556483  0.65898138  0.87792193    -0.79900
O562        O  0.45776390  0.68744971  0.88159598    -0.84100
O563        O  0.40300862  0.67416004  0.82075284    -0.79000
O564        O  0.39956243  0.73586810  0.92687946    -0.80800
O565        O  0.36630556  0.58973173  0.88037905    -0.83500
C566        C  0.38335071  0.70317000  0.81014125     0.97300
C567        C  0.45645079  0.72448112  0.87958494     1.04700
O568        O  0.39315555  0.67044685  0.88277956    -1.12500
O569        O  0.41486243  0.62238501  0.93955360    -0.74900
O570        O  0.44791355  0.61728342  0.91171667    -0.78400
O571        O  0.37096157  0.72172922  0.82790923    -0.79100
C572        C  0.44247446  0.61524294  0.93840674     0.96200
O573        O  0.39452937  0.59588647  0.84813328    -0.77100
O574        O  0.37247603  0.68550194  0.93708667    -0.82300
C575        C  0.31856944  0.69550171  0.87611948     0.98800
C576        C  0.38550961  0.71888432  0.94390440     1.04700
O577        O  0.33890200  0.72159121  0.87561833    -0.77900
C578        C  0.37595750  0.57639567  0.85868876     1.03000
Fe579      Fe  0.06947862  0.65542986  0.63463540     1.65800
Fe580      Fe  0.12030602  0.64029687  0.59374407     1.73200
Fe581      Fe  0.11200817  0.73113809  0.62079982     1.54400
O582        O  0.06886417  0.75285223  0.62320659    -0.81600
O583        O  0.16712153  0.65616416  0.62204904    -0.79900
O584        O  0.03782874  0.70048471  0.61594931    -0.84100
O585        O  0.09158485  0.68795432  0.67808778    -0.79000
O586        O  0.09532685  0.73628554  0.57109273    -0.80800
O587        O  0.12212793  0.59139992  0.62211904    -0.83500
C588        C  0.11374359  0.71431499  0.68800913     0.97300
C589        C  0.04238331  0.73696243  0.62078288     1.04700
O590        O  0.10101035  0.67515469  0.61720596    -1.12500
O591        O  0.07542969  0.62443499  0.56193810    -0.74900
O592        O  0.04371324  0.62501799  0.59133644    -0.78400
O593        O  0.12866773  0.72746869  0.67025673    -0.79100
C594        C  0.04805367  0.61971817  0.56439091     0.96200
O595        O  0.09609683  0.60587438  0.65535009    -0.77100
O596        O  0.12033680  0.68345290  0.56166445    -0.82300
C597        C  0.17631463  0.69160335  0.62142264     0.98800
C598        C  0.10722954  0.71675832  0.55339398     1.04700
O599        O  0.15766773  0.72058246  0.61983790    -0.77900
C600        C  0.11197879  0.58203225  0.64461992     1.03000
Fe601      Fe  0.30100044  0.14699122  0.64586310     1.65800
Fe602      Fe  0.34463424  0.13491166  0.59763332     1.73200
Fe603      Fe  0.33479353  0.22594360  0.62500527     1.54400
O604        O  0.28625947  0.23989045  0.61213415    -0.81600
O605        O  0.38873333  0.16360902  0.61187463    -0.79900
O606        O  0.27375087  0.19662325  0.64321814    -0.84100
O607        O  0.33246410  0.16775908  0.69031796    -0.79000
O608        O  0.33106497  0.23002246  0.57719799    -0.80800
O609        O  0.36353444  0.09671166  0.63578019    -0.83500
C610        C  0.34182973  0.20361852  0.69611203     0.97300
C611        C  0.26837927  0.22847882  0.62736963     1.04700
O612        O  0.32738008  0.16944899  0.62307242    -1.12500
O613        O  0.30162312  0.10352494  0.57858946    -0.74900
O614        O  0.26864129  0.12992889  0.60096227    -0.78400
O615        O  0.34081315  0.22775938  0.67363597    -0.79100
C616        C  0.27352511  0.11358832  0.57699825     0.96200
O617        O  0.32289886  0.09191394  0.65307142    -0.77100
O618        O  0.32847072  0.16938454  0.55716599    -0.82300
C619        C  0.40035086  0.19498029  0.62745909     0.98800
C620        C  0.32958523  0.20635880  0.55435584     1.04700
O621        O  0.38377374  0.21834855  0.63780482    -0.77900
C622        C  0.34796701  0.07765347  0.64998788     1.03000
Fe623      Fe  0.16344456  0.16046460  0.87725824     1.65800
Fe624      Fe  0.10635496  0.14299893  0.91031453     1.73200
Fe625      Fe  0.11561444  0.23409534  0.88519350     1.54400
O626        O  0.15991175  0.25742264  0.88723823    -0.81600
O627        O  0.06121576  0.15705717  0.87816326    -0.79900
O628        O  0.19289291  0.20650310  0.89870561    -0.84100
O629        O  0.14431649  0.19267383  0.83262182    -0.79000
O630        O  0.12670416  0.24006201  0.93426750    -0.80800
O631        O  0.10853123  0.09502124  0.88266603    -0.83500
C632        C  0.12097856  0.21732507  0.82065844     0.97300
C633        C  0.18746149  0.24262498  0.89261059     1.04700
O634        O  0.12831413  0.17874700  0.89032548    -1.12500
O635        O  0.14904365  0.12823302  0.94542459    -0.74900
O636        O  0.18598346  0.13024970  0.92199591    -0.78400
O637        O  0.10385141  0.22909607  0.83655263    -0.79100
C638        C  0.17781991  0.12456269  0.94683548     0.96200
O639        O  0.13942151  0.11031373  0.85439548    -0.77100
O640        O  0.10146959  0.18585271  0.94075463    -0.82300
C641        C  0.05028846  0.19190059  0.87644755     0.98800
C642        C  0.11214491  0.22027843  0.94932983     1.04700
O643        O  0.06836303  0.22190668  0.88046821    -0.77900
C644        C  0.12148674  0.08634940  0.86213766     1.03000
Fe645      Fe  0.41407534  0.33581874  0.87776024     1.65800
Fe646      Fe  0.35966784  0.35200507  0.91448515     1.73200
Fe647      Fe  0.36488915  0.26284307  0.88318355     1.54400
O648        O  0.35143464  0.27284008  0.83477329    -0.81600
O649        O  0.35731898  0.30721735  0.94490985    -0.79900
O650        O  0.39436821  0.30543548  0.83270734    -0.84100
O651        O  0.44251195  0.28848418  0.89792656    -0.79000
O652        O  0.31866096  0.27512498  0.88126273    -0.80800
O653        O  0.40348932  0.36563747  0.94828004    -0.83500
C654        C  0.43605443  0.25315023  0.88929878     0.97300
C655        C  0.37005259  0.28268878  0.81990677     1.04700
O656        O  0.37931477  0.31741345  0.89138075    -1.12500
O657        O  0.36067331  0.40106079  0.88695637    -0.74900
O658        O  0.39008225  0.38667905  0.85673129    -0.78400
O659        O  0.40798917  0.23938044  0.88224680    -0.79100
C660        C  0.37276391  0.41032692  0.86574742     0.96200
O661        O  0.43813008  0.36457141  0.92228310    -0.77100
O662        O  0.31310333  0.33981257  0.88429957    -0.82300
C663        C  0.36752754  0.27201724  0.95068038     0.98800
C664        C  0.30141707  0.30525367  0.88015261     1.04700
O665        O  0.37780295  0.25214132  0.93188336    -0.77900
C666        C  0.43166376  0.36983522  0.94805915     1.03000
Fe667      Fe  0.04964128  0.34592132  0.64344320     1.65800
Fe668      Fe  0.09217990  0.35793178  0.59472303     1.73200
Fe669      Fe  0.08493614  0.26708064  0.62382373     1.54400
O670        O  0.09296937  0.26605811  0.67281095    -0.81600
O671        O  0.07284395  0.32344588  0.55477481    -0.79900
O672        O  0.08201538  0.32599961  0.68800552    -0.84100
O673        O  0.02302413  0.29610102  0.64187681    -0.79000
O674        O  0.13351396  0.27599130  0.63483790    -0.80800
O675        O  0.05031201  0.39103792  0.57902511    -0.83500
C676        C  0.01825873  0.26368732  0.62680525     0.97300
C677        C  0.09332232  0.29086709  0.69456228     1.04700
O678        O  0.07626705  0.32334690  0.62113521    -1.12500
O679        O  0.11283265  0.39558166  0.63299388    -0.74900
O680        O  0.07153424  0.40121769  0.64935644    -0.78400
O681        O  0.03683430  0.25146123  0.61260454    -0.79100
C682        C  0.09673891  0.41537698  0.64632963     0.96200
O683        O  0.01618738  0.36179570  0.59805529    -0.77100
O684        O  0.13560464  0.32854990  0.60531299    -0.82300
C685        C  0.07442066  0.28646062  0.55206540     0.98800
C686        C  0.14834301  0.29810697  0.62154306     1.04700
O687        O  0.07915739  0.26294227  0.57568424    -0.77900
C688        C  0.02213371  0.37929518  0.57516956     1.03000
C689        C  0.44215782  0.38330832  0.50603551    -0.12200
C690        C  0.45756091  0.37882920  0.98004351     0.04800
C691        C  0.49061873  0.37490577  0.98524916    -0.07500
C692        C  0.00631424  0.37691779  0.51506077    -0.08300
C693        C  0.99705377  0.38298516  0.54212340    -0.02800
C694        C  0.46497378  0.38590296  0.53764679     0.04000
N695        N  0.45433925  0.39330792  0.56413094     0.66500
H696        H  0.41697106  0.38607455  0.50302830     0.15400
H697        H  0.03150724  0.37302150  0.51848071     0.15100
N698        N  0.00090037  0.37199793  0.95827480     0.74200
O699        O  0.44503583  0.36504055  0.57718403    -0.39200
O700        O  0.44878778  0.42825520  0.57042884    -0.39200
O701        O  0.51257606  0.39416141  0.94691580    -0.39900
O702        O  0.00899469  0.33798647  0.95244070    -0.39900
C703        C  0.08506080  0.28409302  0.74646329    -0.12200
C704        C  0.10421471  0.27584270  0.72829667     0.04800
C705        C  0.12908427  0.24756877  0.74026335    -0.07500
C706        C  0.13412634  0.22835401  0.77001841    -0.08300
C707        C  0.11415168  0.23581461  0.78793315    -0.02800
C708        C  0.08921780  0.26421797  0.77536091     0.04000
N709        N  0.06627319  0.27199560  0.79033295     0.66500
H710        H  0.06508781  0.30451175  0.73710308     0.15400
H711        H  0.15376218  0.20747338  0.77903368     0.15100
N712        N  0.14964780  0.23836395  0.72265835     0.74200
O713        O  0.07047697  0.30126931  0.80904533    -0.39200
O714        O  0.03844573  0.25794495  0.77737113    -0.39200
O715        O  0.17588863  0.25652560  0.72914852    -0.39900
O716        O  0.14490090  0.20727797  0.70589698    -0.39900
C717        C  0.08408330  0.29610996  0.50079199    -0.12200
C718        C  0.07518408  0.27064300  0.52138155     0.04800
C719        C  0.07431678  0.22973082  0.51583664    -0.07500
C720        C  0.09563627  0.21169506  0.99659158    -0.08300
C721        C  0.10476890  0.23740843  0.97642406    -0.02800
C722        C  0.10263470  0.27834663  0.98023616     0.04000
N723        N  0.11084319  0.30569856  0.95978411     0.66500
H724        H  0.08503722  0.32773937  0.50465741     0.15400
H725        H  0.09613137  0.18000278  0.99346954     0.15100
N726        N  0.06376885  0.20253505  0.53475851     0.74200
O727        O  0.09046795  0.31472201  0.93247432    -0.39200
O728        O  0.13892405  0.31951211  0.96839374    -0.39200
O729        O  0.03441601  0.19362441  0.52579149    -0.39900
O730        O  0.08413672  0.18173455  0.55596198    -0.39900
C731        C  0.22214018  0.25352268  0.86080880    -0.12200
C732        C  0.21299823  0.26572779  0.88670416     0.04800
C733        C  0.23014672  0.29638067  0.90698155    -0.07500
C734        C  0.25732580  0.31247992  0.90222003    -0.08300
C735        C  0.26779012  0.29810148  0.87763012    -0.02800
C736        C  0.24918225  0.26924657  0.85615121     0.04000
N737        N  0.25834538  0.25428150  0.83036016     0.66500
H738        H  0.20882380  0.23023980  0.84471513     0.15400
H739        H  0.27183368  0.33391823  0.91951723     0.15100
N740        N  0.22218741  0.30868504  0.93419037     0.74200
O741        O  0.27232980  0.22135824  0.83354131    -0.39200
O742        O  0.24672154  0.26967308  0.80256645    -0.39200
O743        O  0.23682121  0.29386072  0.96175319    -0.39900
O744        O  0.20465843  0.33859778  0.93180740    -0.39900
C745        C  0.00601055  0.18312329  0.89803360    -0.12200
C746        C  0.01675217  0.19901599  0.87409101     0.04800
C747        C  0.49718051  0.22951869  0.85193966    -0.07500
C748        C  0.46992954  0.24401677  0.85683005    -0.08300
C749        C  0.46091446  0.23031534  0.88224831    -0.02800
C750        C  0.47793206  0.19893745  0.90152928     0.04000
N751        N  0.46953314  0.18493510  0.92802932     0.66500
H752        H  0.02024717  0.16088181  0.91460108     0.15400
H753        H  0.45666065  0.26802420  0.84166838     0.15100
N754        N  0.50606701  0.24680906  0.82680661     0.74200
O755        O  0.44616625  0.16163938  0.92276185    -0.39200
O756        O  0.48207533  0.20048411  0.95566689    -0.39200
O757        O  0.99102485  0.23891581  0.79966886    -0.39900
O758        O  0.52744139  0.27315383  0.83411398    -0.39900
C759        C  0.34676029  0.22738077  0.78189292    -0.12200
C760        C  0.36416414  0.26306937  0.78804735     0.04800
C761        C  0.37713377  0.27638217  0.76500416    -0.07500
C762        C  0.37121530  0.25512461  0.73612081    -0.08300
C763        C  0.35280054  0.22015860  0.72956504    -0.02800
C764        C  0.34140194  0.20577126  0.75342952     0.04000
N765        N  0.32361506  0.16984659  0.74895236     0.66500
H766        H  0.33746850  0.21544381  0.79966580     0.15400
H767        H  0.38043008  0.26681405  0.71820179     0.15100
N768        N  0.39520461  0.31209252  0.76982825     0.74200
O769        O  0.33849991  0.13745694  0.75501045    -0.39200
O770        O  0.29437922  0.17080846  0.74593307    -0.39200
O771        O  0.42524361  0.31056763  0.77704648    -0.39900
O772        O  0.38076490  0.34447911  0.76115671    -0.39900
C773        C  0.34733953  0.21730197  0.97414265    -0.12200
C774        C  0.36374485  0.25312223  0.97873957     0.04800
C775        C  0.36972876  0.27433377  0.00764527    -0.07500
C776        C  0.35024730  0.25853820  0.52849889    -0.08300
C777        C  0.33402619  0.22242153  0.52516619    -0.02800
C778        C  0.32898139  0.19959332  0.49687963     0.04000
N779        N  0.31267480  0.16259117  0.49206369     0.66500
H780        H  0.34165026  0.20160094  0.95128072     0.15400
H781        H  0.35579939  0.27589101  0.55053118     0.15100
N782        N  0.38858805  0.30951506  0.01396610     0.74200
O783        O  0.28911937  0.16660659  0.98750259    -0.39200
O784        O  0.32769776  0.13156401  0.49050749    -0.39200
O785        O  0.37594404  0.34212474  0.01630941    -0.39900
O786        O  0.41056483  0.30478198  0.52016353    -0.39900
C787        C  0.44598840  0.19665413  0.60691122    -0.12200
C788        C  0.43376052  0.20651078  0.63140648     0.04800
C789        C  0.45202366  0.23161121  0.65671997    -0.07500
C790        C  0.98210354  0.24194213  0.65528265    -0.08300
C791        C  0.99029808  0.24021699  0.62725647    -0.02800
C792        C  0.47464260  0.21336743  0.60618883     0.04000
N793        N  0.48415381  0.20574415  0.57901144     0.66500
H794        H  0.43210842  0.17788291  0.58688764     0.15400
H795        H  0.99750009  0.25759127  0.67663039     0.15100
N796        N  0.44131285  0.24222177  0.68262257     0.74200
O797        O  0.49857675  0.17409056  0.57782407    -0.39200
O798        O  0.96600587  0.24730693  0.55062767    -0.39200
O799        O  0.45175792  0.22349484  0.70903973    -0.39900
O800        O  0.42730038  0.27480937  0.68159605    -0.39900
C801        C  0.22106402  0.27169324  0.59917719    -0.12200
C802        C  0.24022552  0.25198404  0.62732520     0.04800
C803        C  0.23036661  0.25158511  0.65457460    -0.07500
C804        C  0.20123004  0.26870518  0.65266531    -0.08300
C805        C  0.18125867  0.28662423  0.62409018    -0.02800
C806        C  0.19164092  0.28869348  0.59723158     0.04000
N807        N  0.17103776  0.30378177  0.56670813     0.66500
H808        H  0.22793286  0.27175474  0.57785471     0.15400
H809        H  0.19370922  0.26693300  0.67354657     0.15100
N810        N  0.24926655  0.23288235  0.68424252     0.74200
O811        O  0.17382919  0.33917869  0.55936394    -0.39200
O812        O  0.15529815  0.28002057  0.54485762    -0.39200
O813        O  0.27035269  0.25252921  0.70569003    -0.39900
O814        O  0.24034286  0.20010791  0.69161270    -0.39900
C815        C  0.21916031  0.13430755  0.54052046    -0.12200
C816        C  0.24608313  0.11021514  0.54527962     0.04800
C817        C  0.24808564  0.08941188  0.51809191    -0.07500
C818        C  0.23069533  0.09467666  0.98315703    -0.08300
C819        C  0.20240925  0.11563781  0.97964396    -0.02800
C820        C  0.19799915  0.12920569  0.00829305     0.04000
N821        N  0.16996953  0.15063407  0.00703926     0.66500
H822        H  0.21702825  0.15125751  0.56053772     0.15400
H823        H  0.23420440  0.08258254  0.96187348     0.15100
N824        N  0.27334191  0.06178035  0.52173182     0.74200
O825        O  0.14740486  0.13261826  0.01208676    -0.39200
O826        O  0.17127173  0.18772291  0.00912867    -0.39200
O827        O  0.26942618  0.02613840  0.52759401    -0.39900
O828        O  0.29652120  0.07113431  0.51309442    -0.39900
C829        C  0.13220842  0.47331998  0.64919854    -0.12200
C830        C  0.10575979  0.45735067  0.65530951     0.04800
C831        C  0.08601331  0.48335298  0.66520517    -0.07500
C832        C  0.09119546  0.52414556  0.66560782    -0.08300
C833        C  0.11523314  0.54018964  0.65557885    -0.02800
C834        C  0.13702396  0.51412835  0.64913059     0.04000
N835        N  0.16315370  0.52862368  0.64066873     0.66500
H836        H  0.14833018  0.45418745  0.64239080     0.15400
H837        H  0.07413849  0.54344770  0.67076998     0.15100
N838        N  0.05871726  0.46948275  0.67193953     0.74200
O839        O  0.18872814  0.53927713  0.66276852    -0.39200
O840        O  0.16271661  0.52455449  0.61204561    -0.39200
O841        O  0.06024367  0.46662573  0.70099316    -0.39900
O842        O  0.03167374  0.46824329  0.64937164    -0.39900
C843        C  0.39104615  0.51215904  0.84109848    -0.12200
C844        C  0.36817814  0.53472091  0.84863292     0.04800
C845        C  0.34265933  0.51496928  0.85422667    -0.07500
C846        C  0.34291476  0.47383372  0.85646838    -0.08300
C847        C  0.36819058  0.45149465  0.85328535    -0.02800
C848        C  0.39147700  0.47093614  0.84361579     0.04000
N849        N  0.41806397  0.45005841  0.84038651     0.66500
H850        H  0.41086328  0.52662393  0.83669557     0.15400
H851        H  0.32421369  0.45949520  0.86292073     0.15100
N852        N  0.31752733  0.53633437  0.86003636     0.74200
O853        O  0.41813076  0.44190796  0.81247632    -0.39200
O854        O  0.44364012  0.44651928  0.86465368    -0.39200
O855        O  0.29318757  0.54685647  0.83633325    -0.39900
O856        O  0.31684590  0.53809576  0.88839684    -0.39900
C857        C  0.46281593  0.60821450  0.50018127    -0.12200
C858        C  0.46928886  0.60750293  0.97042367     0.04800
C859        C  0.50125306  0.59901918  0.97318947    -0.07500
C860        C  0.02618130  0.60079469  0.50515651    -0.08300
C861        C  0.02020763  0.61009622  0.53374870    -0.02800
C862        C  0.48767138  0.61045354  0.53074808     0.04000
N863        N  0.47924918  0.61687666  0.55876349     0.66500
H864        H  0.43831529  0.61145457  0.49942975     0.15400
H865        H  0.05067988  0.59641960  0.50621722     0.15100
N866        N  0.50921953  0.59105860  0.94514994     0.74200
O867        O  0.47391419  0.65146198  0.56612382    -0.39200
O868        O  0.47163177  0.58794013  0.57250304    -0.39200
O869        O  0.52394049  0.61679509  0.93519035    -0.39900
O870        O  0.00709755  0.55277999  0.93694149    -0.39900
C871        C  0.14213488  0.98473974  0.84009868    -0.12200
C872        C  0.11937884  0.96194657  0.84772821     0.04800
C873        C  0.09265224  0.98145864  0.85115088    -0.07500
C874        C  0.09202443  0.02266708  0.85215375    -0.08300
C875        C  0.11735086  0.04531627  0.84943768    -0.02800
C876        C  0.14138021  0.02602989  0.84090352     0.04000
N877        N  0.16726509  0.04742830  0.83672113     0.66500
H878        H  0.16245576  0.97063003  0.83639511     0.15400
H879        H  0.07256156  0.03692126  0.85739843     0.15100
N880        N  0.06703830  0.96006378  0.85592700     0.74200
O881        O  0.19289244  0.05252754  0.86064798    -0.39200
O882        O  0.16679592  0.05454751  0.80845618    -0.39200
O883        O  0.06474670  0.95919687  0.88365793    -0.39900
O884        O  0.04390076  0.94813815  0.83162272    -0.39900
C885        C  0.13403812  0.77206919  0.72509384    -0.12200
C886        C  0.12080132  0.73366590  0.72025845     0.04800
C887        C  0.11162331  0.71700340  0.74491740    -0.07500
C888        C  0.11536350  0.73874186  0.77303658    -0.08300
C889        C  0.12961755  0.77659962  0.77850334    -0.02800
C890        C  0.13865788  0.79335602  0.75379198     0.04000
N891        N  0.15311265  0.83146457  0.75756197     0.66500
H892        H  0.14072052  0.78607867  0.70627449     0.15400
H893        H  0.10824078  0.72465996  0.79153627     0.15100
N894        N  0.10048263  0.67715699  0.74291819     0.74200
O895        O  0.18330225  0.83447606  0.76809784    -0.39200
O896        O  0.13607186  0.86112789  0.74519993    -0.39200
O897        O  0.11915567  0.64934736  0.74246404    -0.39900
O898        O  0.07502290  0.66946970  0.74816312    -0.39900
C899        C  0.12738807  0.72961935  0.97802047    -0.12200
C900        C  0.12618782  0.77069216  0.97503540     0.04800
C901        C  0.11495445  0.79340599  0.99591463    -0.07500
C902        C  0.10735085  0.77511659  0.52011928    -0.08300
C903        C  0.10948105  0.73419917  0.52386720    -0.02800
C904        C  0.11864467  0.71112275  0.50184204     0.04000
N905        N  0.11888071  0.66897594  0.50288995     0.66500
H906        H  0.13491404  0.71149160  0.96166947     0.15400
H907        H  0.10003403  0.79313098  0.53667420     0.15100
N908        N  0.10973873  0.83506448  0.99197897     0.74200
O909        O  0.09317156  0.65029043  0.48902072    -0.39200
O910        O  0.14529175  0.65071618  0.51220390    -0.39200
O911        O  0.08800374  0.84796565  0.96691084    -0.39900
O912        O  0.12091413  0.85745895  0.01626945    -0.39900
C913        C  0.23333554  0.70542863  0.87921749    -0.12200
C914        C  0.23444602  0.74472284  0.88988735     0.04800
C915        C  0.26335101  0.76582732  0.89722781    -0.07500
C916        C  0.28941237  0.74900483  0.89175291    -0.08300
C917        C  0.28838788  0.71042358  0.87968486    -0.02800
C918        C  0.26025519  0.68793468  0.87455199     0.04000
N919        N  0.25816040  0.64812305  0.86351031     0.66500
H920        H  0.21111580  0.68892057  0.87301420     0.15400
H921        H  0.31102189  0.76668310  0.89765016     0.15100
N922        N  0.26642929  0.80511428  0.90975842     0.74200
O923        O  0.26510408  0.62035827  0.88387757    -0.39200
O924        O  0.24427068  0.64056297  0.83377569    -0.39200
O925        O  0.27548060  0.81034573  0.94000640    -0.39900
O926        O  0.26646646  0.83381866  0.89156054    -0.39900
C927        C  0.03263508  0.74689018  0.86263676    -0.12200
C928        C  0.03792684  0.78691293  0.87092143     0.04800
C929        C  0.51578394  0.80683045  0.88182884    -0.07500
C930        C  0.48948581  0.78615023  0.88479390    -0.08300
C931        C  0.48493123  0.74577638  0.87736535    -0.02800
C932        C  0.50677506  0.72656225  0.86542278     0.04000
N933        N  0.50468481  0.68528599  0.85832099     0.66500
H934        H  0.04942278  0.73052911  0.85461195     0.15400
H935        H  0.47277155  0.80173103  0.89343852     0.15100
N936        N  0.51970348  0.84751066  0.89075589     0.74200
O937        O  0.99699606  0.67280387  0.83109554    -0.39200
O938        O  0.51904054  0.66142338  0.88069131    -0.39200
O939        O  0.01089503  0.87283758  0.86788903    -0.39900
O940        O  0.52440250  0.85731963  0.91969786    -0.39900
C941        C  0.34198097  0.96940308  0.66846941    -0.12200
C942        C  0.36489515  0.95358407  0.65670094     0.04800
C943        C  0.38741613  0.97940233  0.65131258    -0.07500
C944        C  0.38352346  0.02014100  0.65286492    -0.08300
C945        C  0.35753205  0.03613978  0.65976615    -0.02800
C946        C  0.33814479  0.01026076  0.67014492     0.04000
N947        N  0.31279846  0.02462701  0.67993448     0.66500
H948        H  0.32492410  0.95015911  0.67365531     0.15400
H949        H  0.39975067  0.03926262  0.64622813     0.15100
N950        N  0.41311462  0.96490081  0.64209253     0.74200
O951        O  0.28434690  0.02468947  0.65990941    -0.39200
O952        O  0.31782047  0.02953922  0.70971215    -0.39200
O953        O  0.41260812  0.97049862  0.61359920    -0.39900
O954        O  0.43861987  0.95303217  0.66367617    -0.39900
C955        C  0.39352779  0.74482078  0.73400294    -0.12200
C956        C  0.36390239  0.76377085  0.71839084     0.04800
C957        C  0.33997465  0.76017250  0.73239692    -0.07500
C958        C  0.34609390  0.73820405  0.76109203    -0.08300
C959        C  0.37575678  0.71910212  0.77656807    -0.02800
C960        C  0.39957958  0.72277748  0.76249850     0.04000
N961        N  0.43090347  0.70663080  0.77788729     0.66500
H962        H  0.41248036  0.74698487  0.72394296     0.15400
H963        H  0.32751274  0.73658982  0.77168680     0.15100
N964        N  0.30912900  0.77791688  0.71758217     0.74200
O965        O  0.43583705  0.67088428  0.77325969    -0.39200
O966        O  0.45448145  0.72969811  0.78903734    -0.39200
O967        O  0.28617702  0.75770001  0.69906842    -0.39900
O968        O  0.30347167  0.81099478  0.72750931    -0.39900
C969        C  0.40220527  0.76499461  0.52505304    -0.12200
C970        C  0.37163117  0.76290109  0.52757661     0.04800
C971        C  0.34557056  0.74753761  0.50213003    -0.07500
C972        C  0.35099944  0.73501230  0.97460138    -0.08300
C973        C  0.38142750  0.73784101  0.97173785    -0.02800
C974        C  0.40732383  0.75385180  0.99702227     0.04000
N975        N  0.43879910  0.75500055  0.99538711     0.66500
H976        H  0.42252601  0.77647065  0.54513726     0.15400
H977        H  0.33074505  0.72244683  0.95489608     0.15100
N978        N  0.31397156  0.74688565  0.50364507     0.74200
O979        O  0.45064207  0.78161030  0.48924523    -0.39200
O980        O  0.45476665  0.72361177  0.99808857    -0.39200
O981        O  0.30059581  0.77857524  0.50699656    -0.39900
O982        O  0.30141335  0.71340471  0.00437566    -0.39900
C983        C  0.47675630  0.76480183  0.65196081    -0.12200
C984        C  0.46327473  0.79819396  0.63358417     0.04800
C985        C  0.47883652  0.81486736  0.61359389    -0.07500
C986        C  0.00588770  0.79642247  0.61131925    -0.08300
C987        C  0.01668229  0.76010170  0.62663915    -0.02800
C988        C  0.50294050  0.74557864  0.64839146     0.04000
N989        N  0.51524614  0.71133243  0.66760651     0.66500
H990        H  0.46551369  0.75189416  0.66783826     0.15400
H991        H  0.01712978  0.80888118  0.59530438     0.15100
N992        N  0.46648350  0.84953268  0.59491950     0.74200
O993        O  0.53309572  0.71561282  0.69685923    -0.39200
O994        O  0.00077283  0.67724759  0.65484611    -0.39200
O995        O  0.47993419  0.88226522  0.60446570    -0.39900
O996        O  0.44636448  0.84644900  0.56645790    -0.39900
C997        C  0.26534029  0.70441929  0.63311781    -0.12200
C998        C  0.26289300  0.73285572  0.60896385     0.04800
C999        C  0.23212152  0.74264026  0.58699796    -0.07500
C1000       C  0.20479545  0.72691946  0.59100204    -0.08300
C1001       C  0.20694590  0.70112161  0.61661450    -0.02800
C1002       C  0.23759989  0.68846850  0.63706512     0.04000
N1003       N  0.24097455  0.66219224  0.66337199     0.66500
H1004       H  0.28880302  0.69672612  0.65050440     0.15400
H1005       H  0.18137319  0.73618200  0.57435965     0.15100
N1006       N  0.22815064  0.76994873  0.56119046     0.74200
O1007       O  0.24577301  0.62599255  0.66035285    -0.39200
O1008       O  0.24410610  0.67586611  0.69095571    -0.39200
O1009       O  0.22499897  0.75721027  0.53332780    -0.39900
O1010       O  0.22128688  0.80537080  0.56454385    -0.39900
C1011       C  0.24348749  0.88398252  0.52595342    -0.12200
C1012       C  0.27550137  0.88500634  0.52759770     0.04800
C1013       C  0.28106615  0.89003383  0.49794854    -0.07500
C1014       C  0.25670951  0.89152012  0.96990397    -0.08300
C1015       C  0.22467785  0.88789247  0.96813021    -0.02800
C1016       C  0.21763948  0.88509114  0.49616402     0.04000
N1017       N  0.18619745  0.87879107  0.49676087     0.66500
H1018       H  0.23822701  0.88008519  0.54801338     0.15400
H1019       H  0.26186226  0.89425453  0.94767905     0.15100
N1020       N  0.31444519  0.89403376  0.99949286     0.74200
O1021       O  0.18013491  0.84653321  0.50759445    -0.39200
O1022       O  0.16962121  0.90709598  0.99702447    -0.39200
O1023       O  0.32577084  0.86348988  0.48960346    -0.39900
O1024       O  0.32729872  0.92763531  0.00253892    -0.39900
Fe1025     Fe  0.81868155  0.83869642  0.13096153     1.65800
Fe1026     Fe  0.87454281  0.85423316  0.09577374     1.73200
Fe1027     Fe  0.86400056  0.76333323  0.12163878     1.54400
O1028       O  0.87502741  0.76625638  0.17071278    -0.81600
O1029       O  0.87931666  0.81186956  0.06545344    -0.79900
O1030       O  0.83628071  0.80562067  0.17494036    -0.84100
O1031       O  0.78741802  0.79406976  0.10937765    -0.79000
O1032       O  0.91128770  0.77526321  0.12752912    -0.80800
O1033       O  0.83130664  0.86917289  0.06070011    -0.83500
C1034       C  0.79129281  0.75714553  0.11141381     0.97300
C1035       C  0.85827173  0.77941104  0.18662280     1.04700
O1036       O  0.85267512  0.81902463  0.11677810    -1.12500
O1037       O  0.87340088  0.90223271  0.12332615    -0.74900
O1038       O  0.84540867  0.88703673  0.15449519    -0.78400
O1039       O  0.81868071  0.74151447  0.11738620    -0.79100
C1040       C  0.86300952  0.91056563  0.14577392     0.96200
O1041       O  0.79674678  0.87020797  0.08693053    -0.77100
O1042       O  0.91990324  0.83983666  0.12734328    -0.82300
C1043       C  0.86765134  0.77809587  0.05685480     0.98800
C1044       C  0.93001037  0.80449263  0.13051092     1.04700
O1045       O  0.85372522  0.75804732  0.07241469    -0.77900
C1046       C  0.80326289  0.87495487  0.06099384     1.03000
Fe1047     Fe  0.67344049  0.84784610  0.36414367     1.65800
Fe1048     Fe  0.62403836  0.85948749  0.40693310     1.73200
Fe1049     Fe  0.63401443  0.76949114  0.37804288     1.54400
O1050       O  0.63427876  0.76841963  0.33183811    -0.81600
O1051       O  0.63659741  0.82307857  0.44583364    -0.79900
O1052       O  0.64612609  0.82759159  0.31718981    -0.84100
O1053       O  0.70068731  0.79762680  0.37037740    -0.79000
O1054       O  0.58546509  0.78097093  0.35973072    -0.80800
O1055       O  0.66731662  0.88900040  0.43079699    -0.83500
C1056       C  0.70364531  0.76505454  0.38516229     0.97300
C1057       C  0.63666767  0.79185439  0.31040458     1.04700
O1058       O  0.64345437  0.82557304  0.38279399    -1.12500
O1059       O  0.60891162  0.90018897  0.37003045    -0.74900
O1060       O  0.65144343  0.90314458  0.35524490    -0.78400
O1061       O  0.68219033  0.75221557  0.39551235    -0.79100
C1062       C  0.62618720  0.91858436  0.35730723     0.96200
O1063       O  0.70297534  0.86476232  0.41088085    -0.77100
O1064       O  0.57920768  0.83144121  0.38926650    -0.82300
C1065       C  0.63213907  0.78648848  0.44648367     0.98800
C1066       C  0.56841962  0.80079442  0.37213461     1.04700
O1067       O  0.63108228  0.76379529  0.42325352    -0.77900
C1068       C  0.69617936  0.88031415  0.43406301     1.03000
Fe1069     Fe  0.92331819  0.64154699  0.36703536     1.65800
Fe1070     Fe  0.87083968  0.63743669  0.40767668     1.73200
Fe1071     Fe  0.88525493  0.72417407  0.37767845     1.54400
O1072       O  0.93073700  0.74020144  0.37808622    -0.81600
O1073       O  0.82514464  0.65615545  0.37887323    -0.79900
O1074       O  0.95745467  0.68455026  0.38195212    -0.84100
O1075       O  0.90269431  0.67062260  0.32132759    -0.79000
O1076       O  0.89916577  0.73319225  0.42718457    -0.80800
O1077       O  0.86578559  0.58669966  0.38119394    -0.83500
C1078       C  0.88307127  0.69966865  0.31060715     0.97300
C1079       C  0.95604437  0.72158161  0.37991857     1.04700
O1080       O  0.89280311  0.66740753  0.38341674    -1.12500
O1081       O  0.91455577  0.61956820  0.44037387    -0.74900
O1082       O  0.94785315  0.61485476  0.41278259    -0.78400
O1083       O  0.87056909  0.71826886  0.32827299    -0.79100
C1084       C  0.94230003  0.61286914  0.43941256     0.96200
O1085       O  0.89456713  0.59233448  0.34941804    -0.77100
O1086       O  0.87234048  0.68285300  0.43784272    -0.82300
C1087       C  0.81813563  0.69268906  0.37684189     0.98800
C1088       C  0.88525333  0.71634570  0.44439946     1.04700
O1089       O  0.83845750  0.71867463  0.37610178    -0.77900
C1090       C  0.87567278  0.57309251  0.35973435     1.03000
Fe1091     Fe  0.57031411  0.65216056  0.13385411     1.65800
Fe1092     Fe  0.62068854  0.63877201  0.09232263     1.73200
Fe1093     Fe  0.61188564  0.72887622  0.12020410     1.54400
O1094       O  0.56869851  0.74951520  0.12303911    -0.81600
O1095       O  0.66733400  0.65483155  0.12070083    -0.79900
O1096       O  0.53815097  0.69665522  0.11531846    -0.84100
O1097       O  0.59207910  0.68471871  0.17735950    -0.79000
O1098       O  0.59485265  0.73468069  0.07054885    -0.80800
O1099       O  0.62311262  0.58946718  0.12038352    -0.83500
C1100       C  0.61409177  0.71123751  0.18733489     0.97300
C1101       C  0.54238450  0.73310651  0.12049110     1.04700
O1102       O  0.60136821  0.67281286  0.11624568    -1.12500
O1103       O  0.57584528  0.62299530  0.06052096    -0.74900
O1104       O  0.54467910  0.62174302  0.09048047    -0.78400
O1105       O  0.62894604  0.72459288  0.16960245    -0.79100
C1106       C  0.54865090  0.61769502  0.06322739     0.96200
O1107       O  0.59788459  0.60325337  0.15444514    -0.77100
O1108       O  0.62029725  0.68255865  0.06063651    -0.82300
C1109       C  0.67626756  0.69041683  0.12036109     0.98800
C1110       C  0.60689278  0.71575443  0.05266793     1.04700
O1111       O  0.65744822  0.71914194  0.11893007    -0.77900
C1112       C  0.61387960  0.57988795  0.14345853     1.03000
Fe1113     Fe  0.80501607  0.14344508  0.14345432     1.65800
Fe1114     Fe  0.84994821  0.13259861  0.09609041     1.73200
Fe1115     Fe  0.84108070  0.22291005  0.12572517     1.54400
O1116       O  0.79284725  0.23857695  0.11289840    -0.81600
O1117       O  0.89449430  0.16023696  0.11184946    -0.79900
O1118       O  0.77764714  0.19277488  0.14016471    -0.84100
O1119       O  0.83497415  0.16359650  0.18888785    -0.79000
O1120       O  0.83809797  0.22886517  0.07834134    -0.80800
O1121       O  0.86748985  0.09238256  0.13310792    -0.83500
C1122       C  0.84511276  0.19899930  0.19565023     0.97300
C1123       C  0.77394913  0.22609659  0.12663449     1.04700
O1124       O  0.83247015  0.16645595  0.12196804    -1.12500
O1125       O  0.80675833  0.10217541  0.07494861    -0.74900
O1126       O  0.77347861  0.12603403  0.09806117    -0.78400
O1127       O  0.84616985  0.22315039  0.17398065    -0.79100
C1128       C  0.77848306  0.11016087  0.07397486     0.96200
O1129       O  0.82737925  0.08906605  0.15143257    -0.77100
O1130       O  0.83520141  0.16904185  0.05669065    -0.82300
C1131       C  0.90642613  0.19107661  0.12806641     0.98800
C1132       C  0.83671171  0.20614387  0.05498364     1.04700
O1133       O  0.89008352  0.21419061  0.13893578    -0.77900
C1134       C  0.85233346  0.07448426  0.14842579     1.03000
Fe1135     Fe  0.66065352  0.16058127  0.38126926     1.65800
Fe1136     Fe  0.60106083  0.14220493  0.41072889     1.73200
Fe1137     Fe  0.60916343  0.23242214  0.38334580     1.54400
O1138       O  0.65373667  0.25617570  0.38635770    -0.81600
O1139       O  0.55618706  0.15431697  0.37678744    -0.79900
O1140       O  0.68829578  0.20756016  0.40471410    -0.84100
O1141       O  0.64439982  0.19312979  0.33678530    -0.79000
O1142       O  0.61790988  0.24094515  0.43185924    -0.80800
O1143       O  0.60595106  0.09376040  0.38451235    -0.83500
C1144       C  0.62046658  0.21619082  0.32273286     0.97300
C1145       C  0.68220349  0.24284771  0.39566271     1.04700
O1146       O  0.62343628  0.17786281  0.39127819    -1.12500
O1147       O  0.64311173  0.12937717  0.44784387    -0.74900
O1148       O  0.68108073  0.12995778  0.42578390    -0.78400
O1149       O  0.59958876  0.22431780  0.33526544    -0.79100
C1150       C  0.67210189  0.12510429  0.45012197     0.96200
O1151       O  0.63786688  0.11012207  0.35741837    -0.77100
O1152       O  0.59390636  0.18593995  0.43928251    -0.82300
C1153       C  0.54431825  0.18881053  0.37386395     0.98800
C1154       C  0.60355401  0.22094907  0.44706810     1.04700
O1155       O  0.56172866  0.21933663  0.37728738    -0.77900
C1156       C  0.62004976  0.08548346  0.36478958     1.03000
Fe1157     Fe  0.90868153  0.33107954  0.37632541     1.65800
Fe1158     Fe  0.85306275  0.34846849  0.41108464     1.73200
Fe1159     Fe  0.85883540  0.25822219  0.38145461     1.54400
O1160       O  0.84654490  0.26677363  0.33276285    -0.81600
O1161       O  0.84941855  0.30449500  0.44131432    -0.79900
O1162       O  0.88938210  0.30062537  0.33152765    -0.84100
O1163       O  0.93679660  0.28351212  0.39676964    -0.79000
O1164       O  0.81223291  0.27079082  0.37901927    -0.80800
O1165       O  0.89650937  0.36236198  0.44582788    -0.83500
C1166       C  0.93038125  0.24815795  0.38813136     0.97300
C1167       C  0.86553044  0.27731385  0.31842391     1.04700
O1168       O  0.87332601  0.31305470  0.38915516    -1.12500
O1169       O  0.85510942  0.39727987  0.38381499    -0.74900
O1170       O  0.88559508  0.38239400  0.35488220    -0.78400
O1171       O  0.90233386  0.23432081  0.38143789    -0.79100
C1172       C  0.86825441  0.40646703  0.36346951     0.96200
O1173       O  0.93202083  0.35991245  0.42086098    -0.77100
O1174       O  0.80703388  0.33578690  0.37980312    -0.82300
C1175       C  0.85936146  0.26940074  0.44815346     0.98800
C1176       C  0.79534985  0.30131849  0.37780243     1.04700
O1177       O  0.87059353  0.24876751  0.43044104    -0.77900
C1178       C  0.92495000  0.36613617  0.44616779     1.03000
Fe1179     Fe  0.55599948  0.34359024  0.14554205     1.65800
Fe1180     Fe  0.59935964  0.35531597  0.09757555     1.73200
Fe1181     Fe  0.59249394  0.26477917  0.12745485     1.54400
O1182       O  0.59934699  0.26443106  0.17619819    -0.81600
O1183       O  0.58081606  0.32017203  0.05783061    -0.79900
O1184       O  0.58769548  0.32425711  0.19071673    -0.84100
O1185       O  0.52956417  0.29361678  0.14375514    -0.79000
O1186       O  0.64122308  0.27442800  0.13904450    -0.80800
O1187       O  0.55752283  0.38820886  0.08102698    -0.83500
C1188       C  0.52548469  0.26055859  0.12966230     0.97300
C1189       C  0.59892918  0.28915959  0.19773435     1.04700
O1190       O  0.58322746  0.32091579  0.12395987    -1.12500
O1191       O  0.61940036  0.39333447  0.13566780    -0.74900
O1192       O  0.57771255  0.39893461  0.15142866    -0.78400
O1193       O  0.54444616  0.24816360  0.11592252    -0.79100
C1194       C  0.60296322  0.41317367  0.14857703     0.96200
O1195       O  0.52310922  0.35912984  0.09977159    -0.77100
O1196       O  0.64281013  0.32641981  0.10879342    -0.82300
C1197       C  0.58353379  0.28321609  0.05574176     0.98800
C1198       C  0.65578533  0.29629573  0.12524196     1.04700
O1199       O  0.58783432  0.26011044  0.07956055    -0.77900
C1200       C  0.52926577  0.37681091  0.07708002     1.03000
C1201       C  0.94789325  0.38645089  0.00709690    -0.12200
C1202       C  0.95052153  0.37614495  0.47813444     0.04800
C1203       C  0.98367878  0.37278614  0.48358099    -0.07500
C1204       C  0.51336385  0.37684550  0.01687880    -0.08300
C1205       C  0.50421611  0.38167857  0.04417424    -0.02800
C1206       C  0.97071788  0.38740749  0.03875420     0.04000
N1207       N  0.96018505  0.39372205  0.06545942     0.66500
H1208       H  0.92277656  0.38941099  0.00420210     0.15400
H1209       H  0.53844535  0.37235207  0.02015209     0.15100
N1210       N  0.49541491  0.36619409  0.45784475     0.74200
O1211       O  0.95188687  0.36473849  0.07861198    -0.39200
O1212       O  0.95374559  0.42823289  0.07193633    -0.39200
O1213       O  0.00658541  0.38901989  0.44530094    -0.39900
O1214       O  0.50175104  0.33132166  0.45212881    -0.39900
C1215       C  0.59512177  0.28991912  0.25257295    -0.12200
C1216       C  0.60943916  0.27429521  0.23169774     0.04800
C1217       C  0.62964161  0.24075897  0.24207608    -0.07500
C1218       C  0.63329519  0.22238907  0.27175911    -0.08300
C1219       C  0.61727636  0.23667926  0.29173671    -0.02800
C1220       C  0.59894507  0.27191352  0.28225809     0.04000
N1221       N  0.58403073  0.29026819  0.30249354     0.66500
H1222       H  0.57976674  0.31569595  0.24535016     0.15400
H1223       H  0.64837540  0.19638407  0.27890469     0.15100
N1224       N  0.64667353  0.22490352  0.22278538     0.74200
O1225       O  0.60059991  0.31160290  0.32587625    -0.39200
O1226       O  0.55380813  0.29179277  0.29314128    -0.39200
O1227       O  0.67472702  0.23689702  0.22724243    -0.39900
O1228       O  0.63663038  0.19387284  0.20658679    -0.39900
C1229       C  0.59025788  0.29344150  0.00281028    -0.12200
C1230       C  0.58571179  0.26713238  0.02557155     0.04800
C1231       C  0.58936213  0.22630507  0.02179251    -0.07500
C1232       C  0.58923779  0.21224071  0.49559918    -0.08300
C1233       C  0.59581731  0.23810671  0.47391156    -0.02800
C1234       C  0.59169560  0.27885742  0.47664775     0.04000
N1235       N  0.59631624  0.30612151  0.45398547     0.66500
H1236       H  0.58777661  0.32503794  0.00521096     0.15400
H1237       H  0.59121113  0.18054611  0.49324692     0.15100
N1238       N  0.58503137  0.19781851  0.04380804     0.74200
O1239       O  0.57505156  0.30998113  0.42619558    -0.39200
O1240       O  0.62224595  0.32514762  0.46123926    -0.39200
O1241       O  0.55818966  0.18104683  0.03715809    -0.39900
O1242       O  0.60929863  0.18375076  0.06581314    -0.39900
C1243       C  0.70940073  0.26769409  0.35940664    -0.12200
C1244       C  0.70813653  0.26640080  0.39083506     0.04800
C1245       C  0.73437627  0.28092202  0.41693108    -0.07500
C1246       C  0.76131569  0.29597787  0.41128302    -0.08300
C1247       C  0.76331939  0.29524042  0.38013204    -0.02800
C1248       C  0.73699442  0.28087957  0.35400213     0.04000
N1249       N  0.73884193  0.27670955  0.32244841     0.66500
H1250       H  0.68975447  0.25537167  0.33918193     0.15400
H1251       H  0.78187360  0.30568344  0.43187964     0.15100
N1252       N  0.73480348  0.27841231  0.44943331     0.74200
O1253       O  0.75106230  0.24590704  0.31564860    -0.39200
O1254       O  0.72255183  0.29927538  0.29985948    -0.39200
O1255       O  0.75043847  0.25116600  0.46775458    -0.39900
O1256       O  0.72486477  0.30712779  0.46146427    -0.39900
C1257       C  0.50007220  0.17978454  0.39544027    -0.12200
C1258       C  0.51046014  0.19510726  0.37106238     0.04800
C1259       C  0.99224274  0.22444745  0.35123870    -0.07500
C1260       C  0.96509976  0.23949986  0.35611692    -0.08300
C1261       C  0.95536404  0.22527639  0.38100270    -0.02800
C1262       C  0.97177631  0.19310626  0.39972918     0.04000
N1263       N  0.96283405  0.17854246  0.42572618     0.66500
H1264       H  0.51482503  0.15838204  0.41255292     0.15400
H1265       H  0.95242283  0.26407674  0.34131441     0.15100
N1266       N  0.00252735  0.24248799  0.32732726     0.74200
O1267       O  0.93993281  0.15442520  0.41990701    -0.39200
O1268       O  0.97464036  0.19392276  0.45350936    -0.39200
O1269       O  0.49058938  0.22870934  0.29709969    -0.39900
O1270       O  0.01669664  0.27531798  0.33349230    -0.39900
C1271       C  0.84573817  0.22088838  0.28049278    -0.12200
C1272       C  0.86108667  0.25793342  0.28680282     0.04800
C1273       C  0.87432717  0.27280552  0.26446409    -0.07500
C1274       C  0.87078639  0.25159637  0.23610270    -0.08300
C1275       C  0.85429965  0.21523862  0.22916502    -0.02800
C1276       C  0.84270838  0.19931225  0.25244453     0.04000
N1277       N  0.82751989  0.16156031  0.24799422     0.66500
H1278       H  0.83654222  0.20782804  0.29793879     0.15400
H1279       H  0.88020393  0.26455956  0.21878565     0.15100
N1280       N  0.89023127  0.31009571  0.26941960     0.74200
O1281       O  0.84458361  0.13083057  0.25327151    -0.39200
O1282       O  0.79847183  0.15896446  0.24545858    -0.39200
O1283       O  0.92029407  0.31144183  0.27679328    -0.39900
O1284       O  0.87390679  0.34126162  0.26101280    -0.39900
C1285       C  0.84131421  0.21414389  0.47350762    -0.12200
C1286       C  0.85430913  0.25198632  0.47625868     0.04800
C1287       C  0.85594734  0.27567629  0.50302790    -0.07500
C1288       C  0.85932770  0.25872869  0.03133751    -0.08300
C1289       C  0.84169924  0.22345793  0.02651799    -0.02800
C1290       C  0.83566183  0.20223850  0.99729357     0.04000
N1291       N  0.81728907  0.16666618  0.99054847     0.66500
H1292       H  0.83864320  0.19635847  0.45219054     0.15400
H1293       H  0.86570236  0.27465356  0.05414486     0.15100
N1294       N  0.87059481  0.31374840  0.50756081     0.74200
O1295       O  0.78616578  0.15731415  0.48286713    -0.39200
O1296       O  0.82802142  0.13682379  0.98060049    -0.39200
O1297       O  0.85349580  0.34423758  0.50434883    -0.39900
O1298       O  0.92066637  0.30367728  0.02240253    -0.39900
C1299       C  0.95133273  0.19433966  0.10652901    -0.12200
C1300       C  0.93984514  0.20252924  0.13187146     0.04800
C1301       C  0.95863344  0.22646811  0.15777985    -0.07500
C1302       C  0.48786926  0.24208336  0.15751316    -0.08300
C1303       C  0.49777934  0.23679267  0.13075810    -0.02800
C1304       C  0.97975606  0.21160287  0.10566532     0.04000
N1305       N  0.98859855  0.20553410  0.07786609     0.66500
H1306       H  0.93703816  0.17650571  0.08604704     0.15400
H1307       H  0.50190610  0.26044377  0.17776051     0.15100
N1308       N  0.94890405  0.23472783  0.18475877     0.74200
O1309       O  0.00335009  0.17453111  0.07566863    -0.39200
O1310       O  0.47576137  0.22930241  0.05308516    -0.39200
O1311       O  0.95820590  0.21254138  0.20931576    -0.39900
O1312       O  0.93659998  0.26773958  0.18663106    -0.39900
C1313       C  0.72742619  0.27120837  0.10066204    -0.12200
C1314       C  0.74662084  0.25011922  0.12791214     0.04800
C1315       C  0.73746649  0.24861655  0.15558225    -0.07500
C1316       C  0.70868417  0.26572981  0.15481302    -0.08300
C1317       C  0.68849690  0.28487884  0.12699609    -0.02800
C1318       C  0.69844522  0.28839775  0.09987396     0.04000
N1319       N  0.67790144  0.30552464  0.07016639     0.66500
H1320       H  0.73390371  0.27229060  0.07912131     0.15400
H1321       H  0.70162311  0.26299021  0.17592512     0.15100
N1322       N  0.75680492  0.22884708  0.18453464     0.74200
O1323       O  0.68026079  0.34178088  0.06507615    -0.39200
O1324       O  0.66287422  0.28331766  0.04676037    -0.39200
O1325       O  0.77781848  0.24800150  0.20644800    -0.39900
O1326       O  0.74830112  0.19537443  0.19100935    -0.39900
C1327       C  0.72129905  0.12240003  0.03957263    -0.12200
C1328       C  0.75066970  0.10465328  0.04266527     0.04800
C1329       C  0.75392556  0.08831930  0.01430718    -0.07500
C1330       C  0.72419137  0.09461315  0.48677636    -0.08300
C1331       C  0.69617651  0.11619030  0.48309381    -0.02800
C1332       C  0.69185117  0.13051991  0.51152752     0.04000
N1333       N  0.66404688  0.15266797  0.50990544     0.66500
H1334       H  0.71760896  0.13472024  0.06070053     0.15400
H1335       H  0.72758713  0.08201013  0.46559808     0.15100
N1336       N  0.78092167  0.06425888  0.01638020     0.74200
O1337       O  0.64244438  0.13630710  0.51778833    -0.39200
O1338       O  0.66479487  0.18977154  0.50841222    -0.39200
O1339       O  0.77961085  0.02759649  0.02053137    -0.39900
O1340       O  0.80333323  0.07812831  0.00843855    -0.39900
C1341       C  0.63675825  0.47198076  0.14918069    -0.12200
C1342       C  0.61147371  0.45534862  0.15696695     0.04800
C1343       C  0.59198475  0.48087393  0.16761581    -0.07500
C1344       C  0.59599860  0.52179011  0.16692273    -0.08300
C1345       C  0.61858730  0.53834974  0.15508449    -0.02800
C1346       C  0.64038763  0.51288997  0.14800705     0.04000
N1347       N  0.66518905  0.52799611  0.13771470     0.66500
H1348       H  0.65270213  0.45324603  0.14176289     0.15400
H1349       H  0.57908322  0.54064414  0.17275793     0.15100
N1350       N  0.56606828  0.46626231  0.17637429     0.74200
O1351       O  0.69114068  0.53979381  0.15862239    -0.39200
O1352       O  0.66341277  0.52324355  0.10872094    -0.39200
O1353       O  0.56940157  0.46385682  0.20596096    -0.39900
O1354       O  0.53828648  0.46425954  0.15509647    -0.39900
C1355       C  0.89031150  0.50833443  0.34229549    -0.12200
C1356       C  0.86750067  0.53148836  0.34943310     0.04800
C1357       C  0.84108894  0.51239852  0.35379091    -0.07500
C1358       C  0.84009845  0.47119832  0.35484890    -0.08300
C1359       C  0.86506734  0.44805428  0.35184490    -0.02800
C1360       C  0.88951982  0.46702408  0.34369795     0.04000
N1361       N  0.91592739  0.44536269  0.34085688     0.66500
H1362       H  0.91084186  0.52226890  0.33890366     0.15400
H1363       H  0.82061512  0.45734248  0.36029139     0.15100
N1364       N  0.81614616  0.53439715  0.35939274     0.74200
O1365       O  0.91631564  0.43707796  0.31308769    -0.39200
O1366       O  0.94114645  0.44108672  0.36541413    -0.39200
O1367       O  0.79221697  0.54562322  0.33555152    -0.39900
O1368       O  0.81505067  0.53597882  0.38759918    -0.39900
C1369       C  0.96368103  0.61517758  0.00033229    -0.12200
C1370       C  0.96913362  0.60595462  0.47158223     0.04800
C1371       C  0.00133095  0.59867816  0.47456447    -0.07500
C1372       C  0.52620095  0.59982538  0.00378013    -0.08300
C1373       C  0.52055297  0.60908116  0.03255513    -0.02800
C1374       C  0.98858596  0.61653839  0.03082033     0.04000
N1375       N  0.98098344  0.62893060  0.05824970     0.66500
H1376       H  0.93969061  0.62288863  0.99933098     0.15400
H1377       H  0.55055932  0.59455801  0.00471979     0.15100
N1378       N  0.00959314  0.59055227  0.44672696     0.74200
O1379       O  0.97952510  0.66525518  0.06373901    -0.39200
O1380       O  0.96988832  0.60431243  0.07298652    -0.39200
O1381       O  0.02450887  0.61618539  0.43690543    -0.39900
O1382       O  0.51082564  0.56239352  0.43402108    -0.39900
C1383       C  0.64281126  0.98429409  0.34311805    -0.12200
C1384       C  0.61890694  0.96088427  0.34814447     0.04800
C1385       C  0.59169534  0.98005951  0.35081247    -0.07500
C1386       C  0.59116521  0.02123630  0.35299905    -0.08300
C1387       C  0.61712765  0.04429975  0.35234626    -0.02800
C1388       C  0.64229868  0.02552527  0.34537499     0.04000
N1389       N  0.66949131  0.04717965  0.34450759     0.66500
H1390       H  0.66377380  0.97054451  0.34048424     0.15400
H1391       H  0.57102740  0.03508845  0.35727533     0.15100
N1392       N  0.56528705  0.95823571  0.35346368     0.74200
O1393       O  0.69288536  0.05312555  0.37048913    -0.39200
O1394       O  0.67269836  0.05365423  0.31762666    -0.39200
O1395       O  0.56164359  0.95577615  0.38052980    -0.39900
O1396       O  0.54281777  0.94761179  0.32806103    -0.39900
C1397       C  0.63428709  0.76898362  0.22442416    -0.12200
C1398       C  0.62096653  0.73062535  0.21954612     0.04800
C1399       C  0.61141648  0.71415640  0.24403375    -0.07500
C1400       C  0.61474078  0.73613370  0.27195029    -0.08300
C1401       C  0.62898161  0.77399986  0.27741904    -0.02800
C1402       C  0.63853458  0.79046718  0.25294342     0.04000
N1403       N  0.65319040  0.82845851  0.25680234     0.66500
H1404       H  0.64132203  0.78282663  0.20576864     0.15400
H1405       H  0.60731324  0.72224160  0.29032120     0.15100
N1406       N  0.60028483  0.67430177  0.24207979     0.74200
O1407       O  0.68339586  0.83123866  0.26779947    -0.39200
O1408       O  0.63642440  0.85814341  0.24396670    -0.39200
O1409       O  0.61883051  0.64649615  0.24127280    -0.39900
O1410       O  0.57500574  0.66657433  0.24765900    -0.39900
C1411       C  0.62858517  0.72867356  0.47838703    -0.12200
C1412       C  0.62593197  0.76954240  0.47430207     0.04800
C1413       C  0.61418911  0.79233427  0.49474135    -0.07500
C1414       C  0.60755379  0.77486170  0.02039455    -0.08300
C1415       C  0.60912614  0.73384211  0.02338598    -0.02800
C1416       C  0.61813718  0.71117375  0.00106528     0.04000
N1417       N  0.61775666  0.66901219  0.00131263     0.66500
H1418       H  0.63676416  0.71053502  0.46251314     0.15400
H1419       H  0.60040839  0.79256906  0.03723785     0.15100
N1420       N  0.60797984  0.83375719  0.49000049     0.74200
O1421       O  0.59182003  0.65101944  0.98689791    -0.39200
O1422       O  0.64390454  0.65019233  0.01035537    -0.39200
O1423       O  0.58628349  0.84563820  0.46447924    -0.39900
O1424       O  0.61832219  0.85687180  0.51391236    -0.39900
C1425       C  0.73254103  0.70316857  0.37906785    -0.12200
C1426       C  0.73345498  0.74270792  0.38912767     0.04800
C1427       C  0.76240507  0.76373383  0.39660690    -0.07500
C1428       C  0.78868325  0.74663161  0.39168886    -0.08300
C1429       C  0.78783981  0.70780578  0.38013053    -0.02800
C1430       C  0.75968950  0.68536051  0.37508399     0.04000
N1431       N  0.75790846  0.64514227  0.36507437     0.66500
H1432       H  0.71034919  0.68660597  0.37295539     0.15400
H1433       H  0.81032981  0.76426629  0.39764452     0.15100
N1434       N  0.76539326  0.80307671  0.40900113     0.74200
O1435       O  0.76564320  0.61821369  0.38618960    -0.39200
O1436       O  0.74352213  0.63636073  0.33566065    -0.39200
O1437       O  0.77332974  0.80846092  0.43914736    -0.39900
O1438       O  0.76613453  0.83166557  0.39096457    -0.39900
C1439       C  0.53125000  0.74394661  0.36107066    -0.12200
C1440       C  0.53656765  0.78390132  0.36966212     0.04800
C1441       C  0.01472148  0.80455713  0.38160957    -0.07500
C1442       C  0.98862490  0.78358959  0.38475388    -0.08300
C1443       C  0.98447308  0.74308099  0.37772479    -0.02800
C1444       C  0.00664539  0.72395666  0.36617478     0.04000
N1445       N  0.00498091  0.68258503  0.35949747     0.66500
H1446       H  0.54794252  0.72782777  0.35274882     0.15400
H1447       H  0.97168816  0.79909799  0.39313425     0.15100
N1448       N  0.01812809  0.84542100  0.38998121     0.74200
O1449       O  0.49495962  0.67013908  0.32900288    -0.39200
O1450       O  0.01995179  0.65917422  0.38198415    -0.39200
O1451       O  0.51057085  0.86963614  0.36751150    -0.39900
O1452       O  0.02217650  0.85579489  0.41866114    -0.39900
C1453       C  0.84640979  0.96803083  0.17102329    -0.12200
C1454       C  0.86886179  0.95105542  0.15925791     0.04800
C1455       C  0.89179348  0.97581436  0.15342456    -0.07500
C1456       C  0.88810558  0.01668494  0.15357457    -0.08300
C1457       C  0.86222498  0.03366757  0.16000166    -0.02800
C1458       C  0.84307146  0.00902430  0.17174858     0.04000
N1459       N  0.81842239  0.02473800  0.18197734     0.66500
H1460       H  0.82925702  0.94957418  0.17680668     0.15400
H1461       H  0.90432722  0.03498878  0.14622015     0.15100
N1462       N  0.91756157  0.95996551  0.14497026     0.74200
O1463       O  0.78952593  0.02328731  0.16310541    -0.39200
O1464       O  0.82475512  0.03283637  0.21153908    -0.39200
O1465       O  0.91789783  0.96492704  0.11670503    -0.39900
O1466       O  0.94242017  0.94734831  0.16703590    -0.39900
C1467       C  0.89381326  0.74185327  0.23482330    -0.12200
C1468       C  0.86423756  0.76088700  0.21914259     0.04800
C1469       C  0.84012732  0.75698126  0.23287889    -0.07500
C1470       C  0.84603691  0.73475094  0.26142343    -0.08300
C1471       C  0.87568184  0.71567445  0.27704794    -0.02800
C1472       C  0.89968118  0.71959444  0.26321590     0.04000
N1473       N  0.93101511  0.70357595  0.27881104     0.66500
H1474       H  0.91287835  0.74420768  0.22493246     0.15400
H1475       H  0.82730516  0.73294168  0.27180573     0.15100
N1476       N  0.80926537  0.77460722  0.21787834     0.74200
O1477       O  0.93621573  0.66800471  0.27389992    -0.39200
O1478       O  0.95443550  0.72674721  0.29052113    -0.39200
O1479       O  0.78647513  0.75434323  0.19916074    -0.39900
O1480       O  0.80338281  0.80754700  0.22785198    -0.39900
C1481       C  0.90204189  0.76668581  0.02489782    -0.12200
C1482       C  0.87183023  0.76257226  0.02800342     0.04800
C1483       C  0.84599533  0.74652691  0.00273891    -0.07500
C1484       C  0.85075358  0.73252934  0.47512984    -0.08300
C1485       C  0.88108120  0.73576873  0.47204001    -0.02800
C1486       C  0.90665552  0.75340874  0.49664380     0.04000
N1487       N  0.93802588  0.75515771  0.49477286     0.66500
H1488       H  0.92221874  0.77896818  0.04479040     0.15400
H1489       H  0.83083111  0.71902845  0.45600856     0.15100
N1490       N  0.81460326  0.74430384  0.00464463     0.74200
O1491       O  0.94863095  0.78899525  0.98885447    -0.39200
O1492       O  0.95464509  0.72420558  0.49821386    -0.39200
O1493       O  0.80012295  0.77535887  0.00735689    -0.39900
O1494       O  0.80171890  0.71130117  0.50541865    -0.39900
C1495       C  0.97613322  0.76008980  0.15170429    -0.12200
C1496       C  0.96366356  0.79475669  0.13474460     0.04800
C1497       C  0.97994548  0.81238639  0.11582655    -0.07500
C1498       C  0.50670092  0.79292830  0.11249989    -0.08300
C1499       C  0.51653957  0.75570468  0.12645313    -0.02800
C1500       C  0.00184340  0.74053538  0.14748474     0.04000
N1501       N  0.01223360  0.70417497  0.16428835     0.66500
H1502       H  0.96421565  0.74630362  0.16662988     0.15400
H1503       H  0.51844785  0.80601599  0.09716517     0.15100
N1504       N  0.96832598  0.84795011  0.09819253     0.74200
O1505       O  0.02777571  0.70490585  0.19439292    -0.39200
O1506       O  0.49786373  0.67151276  0.14964732    -0.39200
O1507       O  0.98223068  0.88012578  0.10888148    -0.39900
O1508       O  0.94849789  0.84625309  0.06949824    -0.39900
C1509       C  0.76521114  0.70321054  0.13236817    -0.12200
C1510       C  0.76289456  0.73255284  0.10894203     0.04800
C1511       C  0.73221807  0.74319497  0.08730286    -0.07500
C1512       C  0.70482490  0.72720871  0.09090459    -0.08300
C1513       C  0.70687459  0.70044922  0.11587041    -0.02800
C1514       C  0.73741115  0.68712796  0.13600370     0.04000
N1515       N  0.74061792  0.66013899  0.16182107     0.66500
H1516       H  0.78863338  0.69492562  0.14952286     0.15400
H1517       H  0.68145622  0.73700654  0.07451239     0.15100
N1518       N  0.72842952  0.77168549  0.06235412     0.74200
O1519       O  0.74596567  0.62418442  0.15845095    -0.39200
O1520       O  0.74283521  0.67302797  0.18939324    -0.39200
O1521       O  0.72525316  0.76028409  0.03412983    -0.39900
O1522       O  0.72177267  0.80686028  0.06679792    -0.39900
C1523       C  0.74475338  0.88334666  0.02737336    -0.12200
C1524       C  0.77682012  0.88480428  0.02923581     0.04800
C1525       C  0.78248526  0.89043231  0.99968665    -0.07500
C1526       C  0.75460962  0.89027667  0.46834415    -0.08300
C1527       C  0.72257718  0.88654210  0.46649618    -0.02800
C1528       C  0.71899025  0.88463040  0.99748371     0.04000
N1529       N  0.68751358  0.87805411  0.99788374     0.66500
H1530       H  0.73939762  0.87903498  0.04933877     0.15400
H1531       H  0.75982943  0.89293693  0.44615217     0.15100
N1532       N  0.81228712  0.89282351  0.49797886     0.74200
O1533       O  0.68145630  0.84557773  0.00839285    -0.39200
O1534       O  0.66707629  0.90565880  0.49443025    -0.39200
O1535       O  0.82739252  0.86570625  0.99060758    -0.39900
O1536       O  0.82497993  0.92647029  0.50045901    -0.39900
Fe1537     Fe  0.81717616  0.83882687  0.62988617     1.65800
Fe1538     Fe  0.87296093  0.85563140  0.59469433     1.73200
Fe1539     Fe  0.86383232  0.76455579  0.62130804     1.54400
O1540       O  0.87477350  0.76799073  0.67034292    -0.81600
O1541       O  0.87842440  0.81316352  0.56458120    -0.79900
O1542       O  0.83542262  0.80654897  0.67423048    -0.84100
O1543       O  0.78669075  0.79328789  0.60879567    -0.79000
O1544       O  0.91098873  0.77759867  0.62710640    -0.80800
O1545       O  0.82948387  0.86948224  0.55954843    -0.83500
C1546       C  0.79115661  0.75647902  0.61124154     0.97300
C1547       C  0.85784192  0.78090856  0.68615544     1.04700
O1548       O  0.85160860  0.81997428  0.61596516    -1.12500
O1549       O  0.87093503  0.90388365  0.62190773    -0.74900
O1550       O  0.84278387  0.88812478  0.65281798    -0.78400
O1551       O  0.81881198  0.74152242  0.61729929    -0.79100
C1552       C  0.85995156  0.91216305  0.64397361     0.96200
O1553       O  0.79473094  0.86943629  0.58556841    -0.77100
O1554       O  0.91862369  0.84234577  0.62629744    -0.82300
C1555       C  0.86725925  0.77906968  0.55631031     0.98800
C1556       C  0.92927696  0.80722552  0.62977887     1.04700
O1557       O  0.85368824  0.75885413  0.57212838    -0.77900
C1558       C  0.80129878  0.87445867  0.55970110     1.03000
Fe1559     Fe  0.67498960  0.84933204  0.86522549     1.65800
Fe1560     Fe  0.62587477  0.86129814  0.90837701     1.73200
Fe1561     Fe  0.63530500  0.77131312  0.87914795     1.54400
O1562       O  0.63558081  0.76991554  0.83294521    -0.81600
O1563       O  0.63807210  0.82473447  0.94724331    -0.79900
O1564       O  0.64761900  0.82893587  0.81828886    -0.84100
O1565       O  0.70206354  0.79913535  0.87164166    -0.79000
O1566       O  0.58684661  0.78336337  0.86078372    -0.80800
O1567       O  0.66928966  0.89042260  0.93230606    -0.83500
C1568       C  0.70493333  0.76658039  0.88639357     0.97300
C1569       C  0.63798446  0.79326999  0.81148263     1.04700
O1570       O  0.64505928  0.82729129  0.88404947    -1.12500
O1571       O  0.61089477  0.90199603  0.87156798    -0.74900
O1572       O  0.65289031  0.90436913  0.85587730    -0.78400
O1573       O  0.68341828  0.75373332  0.89666469    -0.79100
C1574       C  0.62765858  0.91979329  0.85795280     0.96200
O1575       O  0.70471596  0.86650621  0.91194831    -0.77100
O1576       O  0.58092081  0.83382789  0.89051615    -0.82300
C1577       C  0.63320279  0.78820122  0.94758204     0.98800
C1578       C  0.56988673  0.80347793  0.87311385     1.04700
O1579       O  0.63218209  0.76571686  0.92424817    -0.77900
C1580       C  0.69810215  0.88184277  0.93533000     1.03000
Fe1581     Fe  0.92389796  0.64378906  0.86696984     1.65800
Fe1582     Fe  0.87139092  0.63951640  0.90747107     1.73200
Fe1583     Fe  0.88596504  0.72640730  0.87783402     1.54400
O1584       O  0.93149864  0.74244137  0.87844100    -0.81600
O1585       O  0.82581159  0.65824049  0.87853454    -0.79900
O1586       O  0.95807667  0.68669916  0.88217345    -0.84100
O1587       O  0.90335681  0.67307667  0.82135975    -0.79000
O1588       O  0.89971953  0.73516789  0.92733625    -0.80800
O1589       O  0.86644905  0.58893628  0.88103624    -0.83500
C1590       C  0.88374263  0.70213775  0.81070829     0.97300
C1591       C  0.95676809  0.72374683  0.88027123     1.04700
O1592       O  0.89344150  0.66960945  0.88339631    -1.12500
O1593       O  0.91502390  0.62158365  0.94021805    -0.74900
O1594       O  0.94830786  0.61670986  0.91261732    -0.78400
O1595       O  0.87137112  0.72078391  0.82845099    -0.79100
C1596       C  0.94272401  0.61465791  0.93923268     0.96200
O1597       O  0.89498732  0.59480829  0.84907436    -0.77100
O1598       O  0.87274681  0.68473067  0.93760249    -0.82300
C1599       C  0.81883754  0.69476582  0.87670746     0.98800
C1600       C  0.88565252  0.71817915  0.94433615     1.04700
O1601       O  0.83915612  0.72081085  0.87608650    -0.77900
C1602       C  0.87622307  0.57545816  0.85948652     1.03000
Fe1603     Fe  0.56929412  0.65460222  0.63427652     1.65800
Fe1604     Fe  0.62024326  0.63921744  0.59350544     1.73200
Fe1605     Fe  0.61200423  0.73015733  0.62041058     1.54400
O1606       O  0.56884759  0.75202338  0.62264648    -0.81600
O1607       O  0.66702001  0.65508971  0.62177484    -0.79900
O1608       O  0.53766730  0.69981098  0.61595004    -0.84100
O1609       O  0.59158177  0.68691860  0.67782762    -0.79000
O1610       O  0.59547712  0.73522524  0.57071081    -0.80800
O1611       O  0.62234421  0.59061077  0.62206386    -0.83500
C1612       C  0.61373828  0.71329158  0.68772392     0.97300
C1613       C  0.54235729  0.73633094  0.62045823     1.04700
O1614       O  0.60086807  0.67422380  0.61682609    -1.12500
O1615       O  0.57539113  0.62311726  0.56175414    -0.74900
O1616       O  0.54336106  0.62436330  0.59080438    -0.78400
O1617       O  0.62854698  0.72655834  0.66989440    -0.79100
C1618       C  0.54789281  0.61863325  0.56398718     0.96200
O1619       O  0.59590829  0.60505456  0.65491023    -0.77100
O1620       O  0.62024571  0.68216201  0.56135131    -0.82300
C1621       C  0.67629034  0.69046998  0.62115846     0.98800
C1622       C  0.60740606  0.71557975  0.55309423     1.04700
O1623       O  0.65770610  0.71951998  0.61954268    -0.77900
C1624       C  0.61223003  0.58139185  0.64458722     1.03000
Fe1625     Fe  0.80091519  0.14634938  0.64547264     1.65800
Fe1626     Fe  0.84369255  0.13438059  0.59638306     1.73200
Fe1627     Fe  0.83537985  0.22518209  0.62513871     1.54400
O1628       O  0.78712852  0.24006695  0.61286236    -0.81600
O1629       O  0.88771923  0.16300574  0.60970709    -0.79900
O1630       O  0.77385785  0.19603487  0.64292023    -0.84100
O1631       O  0.83254146  0.16688241  0.69002962    -0.79000
O1632       O  0.83114430  0.22965948  0.57724422    -0.80800
O1633       O  0.86299099  0.09569967  0.63420931    -0.83500
C1634       C  0.84245377  0.20250020  0.69610601     0.97300
C1635       C  0.76905477  0.22839645  0.62779707     1.04700
O1636       O  0.82717664  0.16878790  0.62256916    -1.12500
O1637       O  0.80085050  0.10277781  0.57793561    -0.74900
O1638       O  0.76815523  0.12896779  0.60069654    -0.78400
O1639       O  0.84179943  0.22668266  0.67380572    -0.79100
C1640       C  0.77276285  0.11202491  0.57680833     0.96200
O1641       O  0.82296640  0.09151814  0.65255853    -0.77100
O1642       O  0.82678319  0.16942488  0.55620724    -0.82300
C1643       C  0.89997070  0.19377877  0.62582964     0.98800
C1644       C  0.82849197  0.20642210  0.55381769     1.04700
O1645       O  0.88425327  0.21672164  0.63755032    -0.77900
C1646       C  0.84775060  0.07702378  0.64902681     1.03000
Fe1647     Fe  0.66387407  0.15991261  0.87828983     1.65800
Fe1648     Fe  0.60556440  0.14355138  0.90977851     1.73200
Fe1649     Fe  0.61446483  0.23376551  0.88236962     1.54400
O1650       O  0.65883868  0.25678625  0.88420267    -0.81600
O1651       O  0.56036095  0.15724155  0.87712232    -0.79900
O1652       O  0.69225865  0.20663381  0.90003589    -0.84100
O1653       O  0.64585136  0.19058759  0.83312022    -0.79000
O1654       O  0.62456034  0.24231563  0.93120553    -0.80800
O1655       O  0.60806665  0.09499760  0.88264653    -0.83500
C1656       C  0.62158603  0.21321407  0.81936954     0.97300
C1657       C  0.68672612  0.24215742  0.89162467     1.04700
O1658       O  0.62780467  0.17859639  0.88966414    -1.12500
O1659       O  0.64804275  0.12879712  0.94577056    -0.74900
O1660       O  0.68558762  0.13031829  0.92320535    -0.78400
O1661       O  0.60335113  0.22587187  0.83383919    -0.79100
C1662       C  0.67694870  0.12458590  0.94767301     0.96200
O1663       O  0.64044931  0.10948809  0.85572929    -0.77100
O1664       O  0.60072072  0.18748812  0.93931204    -0.82300
C1665       C  0.54929109  0.19211731  0.87451258     0.98800
C1666       C  0.61085519  0.22233285  0.94707205     1.04700
O1667       O  0.56730039  0.22196812  0.87771483    -0.77900
C1668       C  0.62188843  0.08589474  0.86288268     1.03000
Fe1669     Fe  0.91402720  0.33525733  0.87775464     1.65800
Fe1670     Fe  0.85932786  0.35072829  0.91421072     1.73200
Fe1671     Fe  0.86568177  0.26153448  0.88357418     1.54400
O1672       O  0.85226382  0.27085518  0.83508296    -0.81600
O1673       O  0.85737347  0.30597363  0.94488043    -0.79900
O1674       O  0.89479080  0.30427628  0.83290679    -0.84100
O1675       O  0.94297171  0.28847395  0.89835024    -0.79000
O1676       O  0.81933132  0.27314987  0.88138377    -0.80800
O1677       O  0.90291673  0.36519107  0.94801984    -0.83500
C1678       C  0.93691231  0.25292988  0.89019218     0.97300
C1679       C  0.87080203  0.28100160  0.82020993     1.04700
O1680       O  0.87944193  0.31637436  0.89139240    -1.12500
O1681       O  0.86001309  0.39978435  0.88656108    -0.74900
O1682       O  0.88948341  0.38565020  0.85634690    -0.78400
O1683       O  0.90900450  0.23873983  0.88307999    -0.79100
C1684       C  0.87212111  0.40920219  0.86539809     0.96200
O1685       O  0.93761086  0.36471186  0.92207345    -0.77100
O1686       O  0.81296451  0.33773328  0.88384224    -0.82300
C1687       C  0.86809363  0.27100226  0.95087944     0.98800
C1688       C  0.80164909  0.30298163  0.87975358     1.04700
O1689       O  0.87869486  0.25131641  0.93227146    -0.77900
C1690       C  0.93102518  0.37004341  0.94777852     1.03000
Fe1691     Fe  0.55054556  0.34619784  0.64468249     1.65800
Fe1692     Fe  0.59308784  0.35669559  0.59577107     1.73200
Fe1693     Fe  0.58704554  0.26687361  0.62719537     1.54400
O1694       O  0.59462835  0.26756262  0.67601173    -0.81600
O1695       O  0.57377479  0.32076103  0.55669242    -0.79900
O1696       O  0.58223169  0.32745676  0.69007944    -0.84100
O1697       O  0.52406449  0.29651529  0.64332567    -0.79000
O1698       O  0.63555349  0.27672460  0.63815678    -0.80800
O1699       O  0.55127145  0.38965962  0.57938955    -0.83500
C1700       C  0.51999931  0.26316588  0.62970905     0.97300
C1701       C  0.59373252  0.29255304  0.69715444     1.04700
O1702       O  0.57756837  0.32297560  0.62308849    -1.12500
O1703       O  0.61360483  0.39549409  0.63318876    -0.74900
O1704       O  0.57257999  0.40120179  0.65005319    -0.78400
O1705       O  0.53913235  0.25010881  0.61642316    -0.79100
C1706       C  0.59769691  0.41524479  0.64676850     0.96200
O1707       O  0.51732356  0.36106459  0.59889412    -0.77100
O1708       O  0.63657231  0.32771399  0.60672296    -0.82300
C1709       C  0.57648967  0.28376184  0.55497105     0.98800
C1710       C  0.64985218  0.29813898  0.62382144     1.04700
O1711       O  0.58166060  0.26111756  0.57920359    -0.77900
C1712       C  0.52313793  0.37810191  0.57576685     1.03000
C1713       C  0.94148359  0.38551681  0.50500163    -0.12200
C1714       C  0.95675585  0.37975691  0.97970062     0.04800
C1715       C  0.98986682  0.37766330  0.98471130    -0.07500
C1716       C  0.50702729  0.37722804  0.51549421    -0.08300
C1717       C  0.49786770  0.38177869  0.54280694    -0.02800
C1718       C  0.96421483  0.38839798  0.53667311     0.04000
N1719       N  0.95362559  0.39777586  0.56286118     0.66500
H1720       H  0.91632369  0.38943826  0.50169104     0.15400
H1721       H  0.53226022  0.37422554  0.51870467     0.15100
N1722       N  0.50156924  0.36658780  0.95911197     0.74200
O1723       O  0.94330702  0.37082157  0.57629901    -0.39200
O1724       O  0.94932047  0.43335512  0.56861287    -0.39200
O1725       O  0.00838964  0.40156157  0.94510546    -0.39900
O1726       O  0.50622615  0.33130286  0.95283909    -0.39900
C1727       C  0.57733962  0.26168549  0.73868983    -0.12200
C1728       C  0.60245173  0.27692301  0.73031865     0.04800
C1729       C  0.63433481  0.26706817  0.74956813    -0.07500
C1730       C  0.64044846  0.24391470  0.77764764    -0.08300
C1731       C  0.61509187  0.22908581  0.78624420    -0.02800
C1732       C  0.58326664  0.23739190  0.76577093     0.04000
N1733       N  0.55652428  0.22062690  0.77175216     0.66500
H1734       H  0.55260761  0.26684607  0.72286459     0.15400
H1735       H  0.66517440  0.23849136  0.79328586     0.15100
N1736       N  0.66063320  0.28057303  0.74100257     0.74200
O1737       O  0.53572440  0.24324516  0.77560936    -0.39200
O1738       O  0.54968696  0.18481847  0.76508669    -0.39200
O1739       O  0.67588740  0.31091779  0.75455797    -0.39900
O1740       O  0.67246794  0.25815985  0.72531193    -0.39900
C1741       C  0.58251471  0.29300540  0.50176486    -0.12200
C1742       C  0.57771246  0.26713788  0.52463324     0.04800
C1743       C  0.58039770  0.22614687  0.52079816    -0.07500
C1744       C  0.59830546  0.21300856  0.99651249    -0.08300
C1745       C  0.60421910  0.23924074  0.97467147    -0.02800
C1746       C  0.59972142  0.27986377  0.97765974     0.04000
N1747       N  0.60409207  0.30753182  0.95514463     0.66500
H1748       H  0.58056197  0.32470503  0.50410351     0.15400
H1749       H  0.60070325  0.18139506  0.99409926     0.15100
N1750       N  0.57527472  0.19815342  0.54273877     0.74200
O1751       O  0.58215962  0.31269422  0.92794628    -0.39200
O1752       O  0.63052338  0.32529909  0.96174280    -0.39200
O1753       O  0.54790605  0.18280633  0.53616640    -0.39900
O1754       O  0.59913339  0.18298271  0.56453864    -0.39900
C1755       C  0.72361262  0.24865933  0.86177705    -0.12200
C1756       C  0.71261457  0.26414966  0.88544000     0.04800
C1757       C  0.72808973  0.29733060  0.90335223    -0.07500
C1758       C  0.75554038  0.31275961  0.89870934    -0.08300
C1759       C  0.76787290  0.29528861  0.87653863    -0.02800
C1760       C  0.75081151  0.26379852  0.85713698     0.04000
N1761       N  0.76169480  0.24564818  0.83360484     0.66500
H1762       H  0.71158794  0.22334685  0.84747662     0.15400
H1763       H  0.76875878  0.33638828  0.91441698     0.15100
N1764       N  0.71818901  0.31310051  0.92835274     0.74200
O1765       O  0.77661408  0.21330003  0.84019522    -0.39200
O1766       O  0.75050903  0.25719480  0.80452449    -0.39200
O1767       O  0.73161180  0.30143680  0.95720548    -0.39900
O1768       O  0.70012919  0.34294717  0.92263028    -0.39900
C1769       C  0.50518740  0.18362352  0.89638819    -0.12200
C1770       C  0.51578961  0.19964588  0.87236578     0.04800
C1771       C  0.99833815  0.22876105  0.85357562    -0.07500
C1772       C  0.97123324  0.24374086  0.85833171    -0.08300
C1773       C  0.96201821  0.23019784  0.88364051    -0.02800
C1774       C  0.97871594  0.19864509  0.90294681     0.04000
N1775       N  0.96993927  0.18465164  0.92920933     0.66500
H1776       H  0.51952871  0.16138187  0.91287698     0.15400
H1777       H  0.95818418  0.26780382  0.84307301     0.15100
N1778       N  0.00778945  0.24594089  0.82888828     0.74200
O1779       O  0.94685011  0.16087629  0.92371660    -0.39200
O1780       O  0.98185199  0.20054254  0.95677997    -0.39200
O1781       O  0.48634059  0.24514054  0.79804750    -0.39900
O1782       O  0.02492052  0.27657002  0.83562906    -0.39900
C1783       C  0.84819938  0.22525609  0.78235819    -0.12200
C1784       C  0.86516146  0.26127628  0.78841902     0.04800
C1785       C  0.87783994  0.27496737  0.76526631    -0.07500
C1786       C  0.87181047  0.25395301  0.73625217    -0.08300
C1787       C  0.85367070  0.21875821  0.72969807    -0.02800
C1788       C  0.84283973  0.20380687  0.75379625     0.04000
N1789       N  0.82576379  0.16736418  0.74952739     0.66500
H1790       H  0.83926808  0.21295663  0.80027537     0.15400
H1791       H  0.88074180  0.26601367  0.71825000     0.15100
N1792       N  0.89582808  0.31074599  0.77017250     0.74200
O1793       O  0.84125170  0.13538866  0.75534563    -0.39200
O1794       O  0.79656268  0.16738664  0.74667644    -0.39200
O1795       O  0.92592351  0.30932419  0.77783097    -0.39900
O1796       O  0.88135865  0.34306857  0.76126378    -0.39900
C1797       C  0.84722867  0.21665778  0.97387706    -0.12200
C1798       C  0.86438496  0.25194037  0.97885211     0.04800
C1799       C  0.87098611  0.27273563  0.00800533    -0.07500
C1800       C  0.84449969  0.26136885  0.52638988    -0.08300
C1801       C  0.83200931  0.22306870  0.52429276    -0.02800
C1802       C  0.82997768  0.19954155  0.49706957     0.04000
N1803       N  0.81629588  0.16099160  0.49268730     0.66500
H1804       H  0.84112017  0.20133752  0.95080007     0.15400
H1805       H  0.84720737  0.27989398  0.54729880     0.15100
N1806       N  0.89067212  0.30722455  0.01466669     0.74200
O1807       O  0.78810187  0.16764021  0.98776416    -0.39200
O1808       O  0.83339172  0.13182521  0.49136195    -0.39200
O1809       O  0.87894209  0.34011729  0.01794980    -0.39900
O1810       O  0.90071517  0.31646223  0.52040602    -0.39900
C1811       C  0.94200267  0.20153601  0.60112506    -0.12200
C1812       C  0.93294002  0.20533653  0.62854662     0.04800
C1813       C  0.95369493  0.22517755  0.65605299    -0.07500
C1814       C  0.48078984  0.24754742  0.65628846    -0.08300
C1815       C  0.49196097  0.23999734  0.63068413    -0.02800
C1816       C  0.97017343  0.21919636  0.60010016     0.04000
N1817       N  0.97611617  0.21910877  0.57030151     0.66500
H1818       H  0.92589283  0.18727785  0.57938611     0.15400
H1819       H  0.49402915  0.26729649  0.67587776     0.15100
N1820       N  0.94599090  0.22920912  0.68475656     0.74200
O1821       O  0.98609081  0.18810724  0.56117720    -0.39200
O1822       O  0.47332578  0.22703242  0.55400051    -0.39200
O1823       O  0.95668266  0.20436483  0.70733761    -0.39900
O1824       O  0.93417119  0.26112651  0.69011142    -0.39900
C1825       C  0.72195838  0.27210707  0.60035651    -0.12200
C1826       C  0.74130979  0.25220855  0.62828408     0.04800
C1827       C  0.73198708  0.25182129  0.65585698    -0.07500
C1828       C  0.70297624  0.26887819  0.65439148    -0.08300
C1829       C  0.68268318  0.28680806  0.62597841    -0.02800
C1830       C  0.69272349  0.28918490  0.59888235     0.04000
N1831       N  0.67210477  0.30510134  0.56867762     0.66500
H1832       H  0.72855519  0.27232794  0.57885926     0.15400
H1833       H  0.69582632  0.26707176  0.67551482     0.15100
N1834       N  0.75136576  0.23325579  0.68541378     0.74200
O1835       O  0.67477837  0.34084782  0.56218217    -0.39200
O1836       O  0.65629600  0.28200305  0.54629562    -0.39200
O1837       O  0.77242157  0.25313186  0.70669841    -0.39900
O1838       O  0.74298200  0.20022247  0.69289194    -0.39900
C1839       C  0.71598573  0.12581547  0.54198002    -0.12200
C1840       C  0.74492911  0.10657511  0.54559156     0.04800
C1841       C  0.74803889  0.08884034  0.51764999    -0.07500
C1842       C  0.72982864  0.09447733  0.98356735    -0.08300
C1843       C  0.70132328  0.11477369  0.98043504    -0.02800
C1844       C  0.69685576  0.12716257  0.00932540     0.04000
N1845       N  0.66845204  0.14736020  0.00848845     0.66500
H1846       H  0.71254628  0.13949883  0.56276215     0.15400
H1847       H  0.73339412  0.08312302  0.96208381     0.15100
N1848       N  0.77482511  0.06413705  0.52022972     0.74200
O1849       O  0.64623063  0.12808814  0.01311340    -0.39200
O1850       O  0.66908966  0.18437157  0.01139863    -0.39200
O1851       O  0.77342988  0.02783511  0.52577784    -0.39900
O1852       O  0.79682919  0.07669077  0.51102341    -0.39900
C1853       C  0.63317892  0.47309415  0.64961363    -0.12200
C1854       C  0.60681921  0.45708999  0.65585215     0.04800
C1855       C  0.58719355  0.48296173  0.66602487    -0.07500
C1856       C  0.59228679  0.52371750  0.66642222    -0.08300
C1857       C  0.61604814  0.53981740  0.65604751    -0.02800
C1858       C  0.63790392  0.51389978  0.64954613     0.04000
N1859       N  0.66394108  0.52853953  0.64098515     0.66500
H1860       H  0.64925195  0.45401053  0.64268647     0.15400
H1861       H  0.57524958  0.54293248  0.67170803     0.15100
N1862       N  0.55997664  0.46903543  0.67287638     0.74200
O1863       O  0.68921675  0.54024077  0.66296697    -0.39200
O1864       O  0.66378492  0.52374566  0.61252581    -0.39200
O1865       O  0.56149884  0.46658571  0.70195046    -0.39900
O1866       O  0.53294163  0.46745912  0.65031558    -0.39900
C1867       C  0.89086128  0.51117864  0.84147266    -0.12200
C1868       C  0.86825197  0.53381112  0.84936737     0.04800
C1869       C  0.84270383  0.51413836  0.85500058    -0.07500
C1870       C  0.84264610  0.47296720  0.85678373    -0.08300
C1871       C  0.86765829  0.45049091  0.85317314    -0.02800
C1872       C  0.89099005  0.46992274  0.84356301     0.04000
N1873       N  0.91734187  0.44892039  0.83994430     0.66500
H1874       H  0.91069398  0.52555909  0.83703720     0.15400
H1875       H  0.82394555  0.45867902  0.86326975     0.15100
N1876       N  0.81786651  0.53555540  0.86131453     0.74200
O1877       O  0.91685864  0.44037353  0.81191206    -0.39200
O1878       O  0.94318717  0.44550211  0.86391027    -0.39200
O1879       O  0.79322938  0.54600193  0.83791350    -0.39900
O1880       O  0.81768539  0.53725846  0.88986362    -0.39900
C1881       C  0.96298985  0.61236510  0.50056098    -0.12200
C1882       C  0.96945456  0.60727172  0.97136743     0.04800
C1883       C  0.00127029  0.59768221  0.97429611    -0.07500
C1884       C  0.52628988  0.60231414  0.50422383    -0.08300
C1885       C  0.52018972  0.60882259  0.53316885    -0.02800
C1886       C  0.98779792  0.61471101  0.53108546     0.04000
N1887       N  0.97957883  0.62478731  0.55865431     0.66500
H1888       H  0.93866777  0.61803325  0.49955975     0.15400
H1889       H  0.55086779  0.60032794  0.50497209     0.15100
N1890       N  0.00904018  0.58809326  0.94641274     0.74200
O1891       O  0.97655128  0.66056118  0.56488616    -0.39200
O1892       O  0.96974599  0.59833793  0.57297360    -0.39200
O1893       O  0.02397090  0.61280146  0.93571670    -0.39900
O1894       O  0.50787331  0.55613399  0.93492205    -0.39900
C1895       C  0.64283589  0.98443690  0.84064189    -0.12200
C1896       C  0.61974671  0.96153394  0.84758056     0.04800
C1897       C  0.59294342  0.98098382  0.85090412    -0.07500
C1898       C  0.59245043  0.02216519  0.85237567    -0.08300
C1899       C  0.61801473  0.04483914  0.85027961    -0.02800
C1900       C  0.64228718  0.02567932  0.84201938     0.04000
N1901       N  0.66862257  0.04706199  0.83877448     0.66500
H1902       H  0.66327949  0.97039259  0.83713548     0.15400
H1903       H  0.57285072  0.03633065  0.85743474     0.15100
N1904       N  0.56709703  0.95951082  0.85513004     0.74200
O1905       O  0.69387705  0.05177186  0.86320833    -0.39200
O1906       O  0.66892636  0.05458392  0.81084680    -0.39200
O1907       O  0.56465286  0.95792822  0.88277703    -0.39900
O1908       O  0.54388045  0.94847704  0.83052378    -0.39900
C1909       C  0.63430301  0.77088762  0.72493627    -0.12200
C1910       C  0.62095787  0.73254434  0.72006063     0.04800
C1911       C  0.61187963  0.71587263  0.74478756    -0.07500
C1912       C  0.61575120  0.73758709  0.77297263    -0.08300
C1913       C  0.62999625  0.77546449  0.77841058    -0.02800
C1914       C  0.63904160  0.79214956  0.75367265     0.04000
N1915       N  0.65366315  0.83015580  0.75746337     0.66500
H1916       H  0.64098043  0.78488810  0.70611083     0.15400
H1917       H  0.60867756  0.72351223  0.79150691     0.15100
N1918       N  0.60065610  0.67606226  0.74275215     0.74200
O1919       O  0.68386749  0.83295033  0.76806525    -0.39200
O1920       O  0.63678482  0.85988362  0.74495431    -0.39200
O1921       O  0.61938136  0.64817517  0.74262716    -0.39900
O1922       O  0.57496303  0.66850532  0.74757914    -0.39900
C1923       C  0.62740883  0.72990211  0.97789225    -0.12200
C1924       C  0.62636143  0.77098592  0.97500889     0.04800
C1925       C  0.61533171  0.79373055  0.99604369    -0.07500
C1926       C  0.60697306  0.77380106  0.51953047    -0.08300
C1927       C  0.60997560  0.73298208  0.52369464    -0.02800
C1928       C  0.62012071  0.71015637  0.50218917     0.04000
N1929       N  0.62179815  0.66806559  0.50390296     0.66500
H1930       H  0.63482427  0.71175034  0.96147634     0.15400
H1931       H  0.59902319  0.79165103  0.53572589     0.15100
N1932       N  0.61041789  0.83547113  0.99236857     0.74200
O1933       O  0.59706854  0.64801230  0.48918111    -0.39200
O1934       O  0.64882697  0.65127151  0.51457207    -0.39200
O1935       O  0.58912705  0.84877889  0.96715139    -0.39900
O1936       O  0.62131378  0.85755366  0.01689932    -0.39900
C1937       C  0.73369483  0.70481873  0.88004376    -0.12200
C1938       C  0.73469820  0.74428341  0.89027577     0.04800
C1939       C  0.76356651  0.76543211  0.89743156    -0.07500
C1940       C  0.78964330  0.74850134  0.89205123    -0.08300
C1941       C  0.78868667  0.70975717  0.88031710    -0.02800
C1942       C  0.76065467  0.68719979  0.87555645     0.04000
N1943       N  0.75875684  0.64710185  0.86523273     0.66500
H1944       H  0.71153815  0.68822105  0.87409268     0.15400
H1945       H  0.81120918  0.76623338  0.89775069     0.15100
N1946       N  0.76659773  0.80484652  0.90970026     0.74200
O1947       O  0.76651135  0.61993316  0.88613554    -0.39200
O1948       O  0.74425137  0.63865739  0.83576871    -0.39200
O1949       O  0.77568633  0.81037682  0.93991652    -0.39900
O1950       O  0.76657337  0.83336158  0.89130461    -0.39900
C1951       C  0.53198939  0.74746761  0.86131475    -0.12200
C1952       C  0.53776983  0.78724144  0.87026502     0.04800
C1953       C  0.01565008  0.80652294  0.88205129    -0.07500
C1954       C  0.98946731  0.78568827  0.88513743    -0.08300
C1955       C  0.98527457  0.74515730  0.87819116    -0.02800
C1956       C  0.00747491  0.72589019  0.86677437     0.04000
N1957       N  0.00568877  0.68452009  0.86008955     0.66500
H1958       H  0.54850354  0.73113763  0.85288508     0.15400
H1959       H  0.97249382  0.80131585  0.89338910     0.15100
N1960       N  0.01907002  0.84743567  0.89024404     0.74200
O1961       O  0.49672618  0.67402191  0.82926350    -0.39200
O1962       O  0.02053553  0.66100839  0.88255751    -0.39200
O1963       O  0.51177854  0.87350652  0.86886716    -0.39900
O1964       O  0.02362166  0.85796966  0.91899438    -0.39900
C1965       C  0.84148775  0.96913545  0.66831683    -0.12200
C1966       C  0.86458014  0.95299237  0.65698718     0.04800
C1967       C  0.88731896  0.97855208  0.65168857    -0.07500
C1968       C  0.88339025  0.01934898  0.65269710    -0.08300
C1969       C  0.85726646  0.03561261  0.65916844    -0.02800
C1970       C  0.83769667  0.01003217  0.66959685     0.04000
N1971       N  0.81213669  0.02470684  0.67891160     0.66500
H1972       H  0.82425653  0.95009435  0.67340878     0.15400
H1973       H  0.89974640  0.03827294  0.64607750     0.15100
N1974       N  0.91333673  0.96366209  0.64317435     0.74200
O1975       O  0.78378359  0.02455629  0.65867006    -0.39200
O1976       O  0.81690797  0.03044081  0.70854575    -0.39200
O1977       O  0.91353486  0.96905082  0.61490598    -0.39900
O1978       O  0.93843900  0.95154727  0.66519193    -0.39900
C1979       C  0.89377704  0.74375138  0.73442435    -0.12200
C1980       C  0.86413074  0.76272718  0.71886286     0.04800
C1981       C  0.84026610  0.75909413  0.73295073    -0.07500
C1982       C  0.84644502  0.73710866  0.76164843    -0.08300
C1983       C  0.87612451  0.71803720  0.77710182    -0.02800
C1984       C  0.89990708  0.72173790  0.76297867     0.04000
N1985       N  0.93126789  0.70569694  0.77840636     0.66500
H1986       H  0.91268325  0.74592811  0.72430409     0.15400
H1987       H  0.82788912  0.73547161  0.77227466     0.15100
N1988       N  0.80939623  0.77679443  0.71819591     0.74200
O1989       O  0.93646665  0.67017398  0.77334557    -0.39200
O1990       O  0.95468941  0.72881882  0.79030751    -0.39200
O1991       O  0.78642353  0.75650576  0.69980049    -0.39900
O1992       O  0.80373722  0.80984702  0.72816304    -0.39900
C1993       C  0.90165791  0.76710610  0.52429578    -0.12200
C1994       C  0.87144517  0.76325247  0.52749099     0.04800
C1995       C  0.84569426  0.74645117  0.50258577    -0.07500
C1996       C  0.85103693  0.73365472  0.97502860    -0.08300
C1997       C  0.88137335  0.73719155  0.97202231    -0.02800
C1998       C  0.90700943  0.75414506  0.99698602     0.04000
N1999       N  0.93833110  0.75648223  0.99506082     0.66500
H2000       H  0.92166174  0.77978803  0.54380946     0.15400
H2001       H  0.83096909  0.72052084  0.95553320     0.15100
N2002       N  0.81432041  0.74437932  0.50457648     0.74200
O2003       O  0.94838783  0.78720925  0.48779216    -0.39200
O2004       O  0.95503533  0.72571194  0.99782716    -0.39200
O2005       O  0.80004647  0.77547508  0.50760922    -0.39900
O2006       O  0.80230841  0.71116198  0.00599861    -0.39900
C2007       C  0.97629228  0.76428775  0.65194191    -0.12200
C2008       C  0.96312048  0.79818114  0.63413953     0.04800
C2009       C  0.97902271  0.81546118  0.61470373    -0.07500
C2010       C  0.50561961  0.79562617  0.61021156    -0.08300
C2011       C  0.51680619  0.75982666  0.62626834    -0.02800
C2012       C  0.00234187  0.74505607  0.64811979     0.04000
N2013       N  0.01375147  0.70972056  0.66613318     0.66500
H2014       H  0.96475134  0.75084711  0.66734776     0.15400
H2015       H  0.51653721  0.80753270  0.59372358     0.15100
N2016       N  0.96689453  0.85050849  0.59649108     0.74200
O2017       O  0.03054487  0.71223104  0.69586334    -0.39200
O2018       O  0.50232653  0.67830191  0.65811564    -0.39200
O2019       O  0.98036536  0.88308127  0.60661098    -0.39900
O2020       O  0.94689814  0.84801188  0.56792414    -0.39900
C2021       C  0.76539795  0.70332347  0.63349513    -0.12200
C2022       C  0.76306762  0.73135583  0.60909550     0.04800
C2023       C  0.73240710  0.74066815  0.58670028    -0.07500
C2024       C  0.70498532  0.72506703  0.59058373    -0.08300
C2025       C  0.70698779  0.69976608  0.61645167    -0.02800
C2026       C  0.73757895  0.68739455  0.63726658     0.04000
N2027       N  0.74077494  0.66140216  0.66370553     0.66500
H2028       H  0.78879628  0.69596202  0.65117319     0.15400
H2029       H  0.68161010  0.73404451  0.57365322     0.15100
N2030       N  0.72866029  0.76739634  0.56056946     0.74200
O2031       O  0.74544370  0.62511804  0.66091252    -0.39200
O2032       O  0.74377092  0.67535773  0.69116689    -0.39200
O2033       O  0.72579809  0.75404491  0.53295852    -0.39900
O2034       O  0.72183193  0.80297076  0.56337683    -0.39900
C2035       C  0.74273696  0.88222599  0.52606466    -0.12200
C2036       C  0.77479774  0.88378893  0.52788727     0.04800
C2037       C  0.78044063  0.88922365  0.49831203    -0.07500
C2038       C  0.75666217  0.89156479  0.96967669    -0.08300
C2039       C  0.72460587  0.88786839  0.96778354    -0.02800
C2040       C  0.71695869  0.88333294  0.49618580     0.04000
N2041       N  0.68548978  0.87668109  0.49659553     0.66500
H2042       H  0.73740561  0.87801546  0.54805335     0.15400
H2043       H  0.76189817  0.89434824  0.94750154     0.15100
N2044       N  0.81434614  0.89433969  0.99945271     0.74200
O2045       O  0.67954552  0.84431664  0.50736531    -0.39200
O2046       O  0.66922134  0.90709339  0.99597171    -0.39200
O2047       O  0.82536188  0.86377104  0.48970908    -0.39900
O2048       O  0.82712858  0.92800013  0.00271454    -0.39900
loop_ 
_geom_bond_atom_site_label_1 
_geom_bond_atom_site_label_2 
_geom_bond_distance 
_geom_bond_site_symmetry_2 
_ccdc_geom_bond_type 
Fe1          O17   2.123       .  S
Fe1           O7   2.048       .  S
Fe1          O14   2.074       .  S
Fe1           O6   2.132       .  S
Fe1          O12   1.949       .  S
Fe2           O5   2.027       .  S
Fe2           O9   2.063       .  S
Fe2          O13   2.047       .  S
Fe2          O18   2.066       .  S
Fe2          O12   1.968       .  S
Fe3          O21   2.061       .  S
Fe3           O8   2.068       .  S
Fe3          O15   2.095       .  S
Fe3           O4   2.044       .  S
Fe3          O12   1.947       .  S
O4           C11   1.272       .  A
O5           C19   1.261       .  A
O6           C11   1.287       .  A
O7           C10   1.263       .  A
O8           C20   1.272       .  A
O9           C22   1.269       .  A
C10          O15   1.269       .  A
C10         C486   1.486       .  S
C11         C444   1.500       .  S
O13          C16   1.264       .  A
O14          C16   1.270       .  A
C16         C430   1.483       .  S
O17          C22   1.285       .  A
O18          C20   1.271       .  A
C19          O21   1.273       .  A
C19         C458   1.449       .  S
C20         C472   1.481       .  S
C22         C500   1.513       .  S
Fe23         O39   2.092       .  S
Fe23         O29   2.052       .  S
Fe23         O36   2.088       .  S
Fe23         O28   2.108       .  S
Fe23         O34   1.951       .  S
Fe24         O27   2.027       .  S
Fe24         O31   2.094       .  S
Fe24         O35   2.055       .  S
Fe24         O40   2.096       .  S
Fe24         O34   1.962       .  S
Fe25         O43   2.053       .  S
Fe25         O30   2.060       .  S
Fe25         O37   2.090       .  S
Fe25         O26   2.040       .  S
Fe25         O34   1.943       .  S
O26          C33   1.268       .  A
O27          C41   1.260       .  A
O28          C33   1.283       .  A
O29          C32   1.266       .  A
O30          C42   1.273       .  A
O31          C44   1.276       .  A
C32          O37   1.273       .  A
C32         C402   1.484       .  S
C33         C377   1.498       .  S
O35          C38   1.266       .  A
O36          C38   1.273       .  A
C38         C360   1.494       .  S
O39          C44   1.277       .  A
O40          C42   1.275       .  A
C41          O43   1.269       .  A
C41         C388   1.468       .  S
C42         C416   1.497       .  S
C44         C503   1.509       .  S
Fe45         O61   2.079       .  S
Fe45         O51   2.135       .  S
Fe45         O58   2.127       .  S
Fe45         O50   2.042       .  S
Fe45         O56   1.957       .  S
Fe46         O49   2.080       .  S
Fe46         O53   2.046       .  S
Fe46         O57   2.064       .  S
Fe46         O62   2.020       .  S
Fe46         O56   1.971       .  S
Fe47         O65   2.069       .  S
Fe47         O52   2.069       .  S
Fe47         O59   2.051       .  S
Fe47         O48   2.092       .  S
Fe47         O56   1.955       .  S
O48          C55   1.270       .  A
O49          C63   1.274       .  A
O50          C55   1.260       .  A
O51          C54   1.290       .  A
O52          C64   1.272       .  A
O53          C66   1.263       .  A
C54          O59   1.273       .  A
C54         C447   1.499       .  S
C55         C419   1.495       .  S
O57          C60   1.272       .  A
O58          C60   1.285       .  A
C60         C346   1.516       .  S
O61          C66   1.269       .  A
O62          C64   1.260       .  A
C63          O65   1.273       .  A
C63         C405   1.497       .  S
C64         C461   1.452       .  S
C66         C332   1.487       .  S
Fe67         O83   2.071       .  S
Fe67         O73   2.125       .  S
Fe67         O80   2.116       .  S
Fe67         O72   2.041       .  S
Fe67         O78   1.940       .  S
Fe68         O71   2.082       .  S
Fe68         O75   2.061       .  S
Fe68         O79   2.064       .  S
Fe68         O84   2.035       .  S
Fe68         O78   1.957       .  S
Fe69         O87   2.075       .  S
Fe69         O74   2.056       .  S
Fe69         O81   2.042       .  S
Fe69         O70   2.091       .  S
Fe69         O78   1.953       .  S
O70          C77   1.266       .  A
O71          C85   1.273       .  A
O72          C77   1.260       .  A
O73          C76   1.288       .  A
O74          C86   1.273       .  A
O75          C88   1.267       .  A
C76          O81   1.273       .  A
C76         C374   1.494       .  S
C77         C475   1.481       .  S
O79          C82   1.271       .  A
O80          C82   1.282       .  A
C82         C349   1.510       .  S
O83          C88   1.270       .  A
O84          C86   1.265       .  A
C85          O87   1.272       .  A
C85         C489   1.484       .  S
C86         C391   1.464       .  S
C88         C321   1.488       .  S
Fe89        O105   2.065       .  S
Fe89         O95   2.092       .  S
Fe89        O102   2.083       .  S
Fe89         O94   2.043       .  S
Fe89        O100   1.956       .  S
Fe90         O93   2.075       .  S
Fe90         O97   2.057       .  S
Fe90        O101   2.087       .  S
Fe90        O106   2.042       .  S
Fe90        O100   1.966       .  S
Fe91        O109   2.073       .  S
Fe91         O96   2.056       .  S
Fe91        O103   2.058       .  S
Fe91         O92   2.090       .  S
Fe91        O100   1.952       .  S
O92          C99   1.271       .  A
O93         C107   1.272       .  A
O94          C99   1.261       .  A
O95          C98   1.282       .  A
O96         C108   1.270       .  A
O97         C110   1.266       .  A
C98         O103   1.272       .  A
C98         C251   1.492       .  S
C99         C290   1.484       .  S
O101        C104   1.273       .  A
O102        C104   1.278       .  A
C104        C304   1.504       .  S
O105        C110   1.265       .  A
O106        C108   1.265       .  A
C107        O109   1.273       .  A
C107        C276   1.488       .  S
C108        C265   1.473       .  S
C110        C433   1.488       .  S
Fe111       O127   2.077       .  S
Fe111       O117   2.139       .  S
Fe111       O124   2.117       .  S
Fe111       O116   2.054       .  S
Fe111       O122   1.950       .  S
Fe112       O115   2.073       .  S
Fe112       O119   2.063       .  S
Fe112       O123   2.049       .  S
Fe112       O128   2.039       .  S
Fe112       O122   1.946       .  S
Fe113       O131   2.079       .  S
Fe113       O118   2.052       .  S
Fe113       O125   2.024       .  S
Fe113       O114   2.104       .  S
Fe113       O122   1.944       .  S
O114        C121   1.270       .  A
O115        C129   1.272       .  A
O116        C121   1.261       .  A
O117        C120   1.289       .  A
O118        C130   1.273       .  A
O119        C132   1.271       .  A
C120        O125   1.266       .  A
C120        C195   1.495       .  S
C121        C220   1.480       .  S
O123        C126   1.267       .  A
O124        C126   1.280       .  A
C126        C307   1.495       .  S
O127        C132   1.272       .  A
O128        C130   1.268       .  A
C129        O131   1.271       .  A
C129        C234   1.487       .  S
C130        C209   1.468       .  S
C132        C363   1.489       .  S
Fe133       O149   2.113       .  S
Fe133       O139   2.044       .  S
Fe133       O146   2.068       .  S
Fe133       O138   2.124       .  S
Fe133       O144   1.949       .  S
Fe134       O137   2.052       .  S
Fe134       O141   2.050       .  S
Fe134       O145   2.069       .  S
Fe134       O150   2.069       .  S
Fe134       O144   1.949       .  S
Fe135       O153   2.056       .  S
Fe135       O140   2.087       .  S
Fe135       O147   2.101       .  S
Fe135       O136   2.038       .  S
Fe135       O144   1.958       .  S
O136        C143   1.273       .  A
O137        C151   1.271       .  A
O138        C143   1.286       .  A
O139        C142   1.261       .  A
O140        C152   1.270       .  A
O141        C154   1.267       .  A
C142        O147   1.269       .  A
C142        C237   1.477       .  S
C143        C248   1.490       .  S
O145        C148   1.271       .  A
O146        C148   1.270       .  A
C148        C335   1.489       .  S
O149        C154   1.279       .  A
O150        C152   1.269       .  A
C151        O153   1.274       .  A
C151        C262   1.458       .  S
C152        C223   1.480       .  S
C154        C178   1.505       .  S
Fe155       O171   2.095       .  S
Fe155       O161   2.051       .  S
Fe155       O168   2.084       .  S
Fe155       O160   2.091       .  S
Fe155       O166   1.944       .  S
Fe156       O159   2.036       .  S
Fe156       O163   2.070       .  S
Fe156       O167   2.055       .  S
Fe156       O172   2.070       .  S
Fe156       O166   1.955       .  S
Fe157       O175   2.052       .  S
Fe157       O162   2.071       .  S
Fe157       O169   2.095       .  S
Fe157       O158   2.058       .  S
Fe157       O166   1.945       .  S
O158        C165   1.272       .  A
O159        C173   1.266       .  A
O160        C165   1.285       .  A
O161        C164   1.264       .  A
O162        C174   1.273       .  A
O163        C176   1.268       .  A
C164        O169   1.272       .  A
C164        C279   1.490   1_455  S
C165        C192   1.482       .  S
O167        C170   1.268       .  A
O168        C170   1.271       .  A
C170        C318   1.493       .  S
O171        C176   1.276       .  A
O172        C174   1.268       .  A
C173        O175   1.269       .  A
C173        C206   1.468       .  S
C174        C293   1.485       .  S
C176        C181   1.493       .  S
C177        C182   1.406       .  A
C177        C690   1.415   1_554  A
C177        H184   1.085       .  S
C178        C179   1.414       .  A
C178        C689   1.415       .  A
C179       C1716   1.405       .  A
C179       N1210   1.429       .  S
C180        C181   1.410       .  A
C180       C1715   1.405   1_454  A
C180        H185   1.085       .  S
C181       C1206   1.407   1_455  A
C182       C1205   1.407       .  A
C182        N183   1.429       .  S
N183        O187   1.262       .  A
N183        O188   1.262       .  A
N186       C1203   1.429       .  S
N186        O190   1.262       .  A
N186       O1213   1.262   1_655  A
O189       N1210   1.262       .  A
C191        C192   1.393       .  A
C191        C196   1.396       .  A
C191        H198   1.086       .  S
C192        C193   1.418       .  A
C193        C194   1.406       .  A
C193        N200   1.429       .  S
C194        C195   1.404       .  A
C194        H199   1.085       .  S
C195        C196   1.425       .  A
C196        N197   1.428       .  S
N197        O201   1.262       .  A
N197        O202   1.261       .  A
N200        O204   1.262       .  A
N200        O203   1.262       .  A
C205        C206   1.408       .  A
C205        C722   1.393   1_554  A
C205        H212   1.086       .  S
C206        C207   1.409       .  A
C207        C720   1.386   1_554  A
C207        N214   1.430       .  S
C208        C209   1.406       .  A
C208        C719   1.385       .  A
C208        H213   1.085       .  S
C209        C210   1.407       .  A
C210        C717   1.394       .  A
C210        N211   1.429       .  S
N211        O215   1.262       .  A
N211        O216   1.262       .  A
N214        O218   1.262       .  A
N214        O217   1.262       .  A
C219        C220   1.407       .  A
C219        C224   1.407       .  A
C219        H226   1.087       .  S
C220        C221   1.407       .  A
C221        C222   1.403       .  A
C221        N228   1.429       .  S
C222        C223   1.406       .  A
C222        H227   1.087       .  S
C223        C224   1.408       .  A
C224        N225   1.428       .  S
N225        O229   1.262       .  A
N225        O230   1.262       .  A
N228        O232   1.262       .  A
N228        O231   1.262       .  A
C233        C234   1.412   1_655  A
C233       C1262   1.412       .  A
C233        H240   1.084   1_655  S
C234       C1259   1.410   1_455  A
C235        C236   1.399       .  A
C235       C1258   1.410       .  A
C235        N242   1.428       .  S
C236        C237   1.402       .  A
C236        H241   1.085       .  S
C237        C238   1.406       .  A
C238       C1257   1.410       .  A
C238        N239   1.428       .  S
N239        O243   1.262       .  A
N239        O244   1.262       .  A
N242        O246   1.262       .  A
N242       O1269   1.262       .  A
O245       N1266   1.262   1_655  A
C247        C248   1.411       .  A
C247        C252   1.402       .  A
C247        H254   1.086       .  S
C248        C249   1.408       .  A
C249        C250   1.402       .  A
C249        N256   1.429       .  S
C250        C251   1.413       .  A
C250        H255   1.086       .  S
C251        C252   1.410       .  A
C252        N253   1.430       .  S
N253        O257   1.262       .  A
N253        O258   1.262       .  A
N256        O260   1.262       .  A
N256        O259   1.262       .  A
C261        C262   1.398       .  A
C261        C778   1.398       .  A
C261        H268   1.087       .  S
C262        C263   1.405       .  A
C263        C776   1.388       .  A
C263        N270   1.429       .  S
C264        C265   1.406       .  A
C264        C775   1.390       .  A
C264        H269   1.087       .  S
C265        C266   1.416   1_554  A
C266        C773   1.395       .  A
C266        N267   1.429       .  S
N267        O783   1.262       .  A
N267        O272   1.262       .  A
N270        O786   1.262       .  A
N270        O273   1.262       .  A
O271        N779   1.262       .  A
O274        N782   1.262       .  A
C275        C276   1.411       .  A
C275        C280   1.407       .  A
C275        H282   1.086       .  S
C276        C277   1.409       .  A
C277       C1302   1.399       .  A
C277        N284   1.430       .  S
C278        C279   1.409       .  A
C278       C1301   1.399       .  A
C278        H283   1.087   1_655  S
C279       C1304   1.410       .  A
C280       C1303   1.409       .  A
C280        N281   1.428       .  S
N281        O285   1.262       .  A
N281       O1310   1.262       .  A
N284        O288   1.262       .  A
N284        O287   1.262       .  A
O286       N1305   1.262       .  A
C289        C290   1.400       .  A
C289        C294   1.406       .  A
C289        H296   1.086       .  S
C290        C291   1.417       .  A
C291        C292   1.396       .  A
C291        N298   1.429       .  S
C292        C293   1.398       .  A
C292        H297   1.086       .  S
C293        C294   1.420       .  A
C294        N295   1.428       .  S
N295        O299   1.262       .  A
N295        O300   1.261       .  A
N298        O302   1.262       .  A
N298        O301   1.262       .  A
C303        C304   1.401       .  A
C303        C820   1.399       .  A
C303        H310   1.085       .  S
C304        C305   1.421       .  A
C305        C818   1.415   1_554  A
C305        N312   1.429       .  S
C306        C307   1.405       .  A
C306        C817   1.413       .  A
C306        H311   1.085       .  S
C307        C308   1.416       .  A
C308        C815   1.399       .  A
C308        N309   1.430       .  S
N309        O313   1.262       .  A
N309        O314   1.262       .  A
N312        O316   1.260       .  A
N312        O315   1.262       .  A
C317        C318   1.407       .  A
C317        C322   1.401       .  A
C317        H324   1.086       .  S
C318        C319   1.418       .  A
C319        C320   1.401       .  A
C319        N326   1.430       .  S
C320        C321   1.404       .  A
C320        H325   1.086       .  S
C321        C322   1.413       .  A
C322        N323   1.430       .  S
N323        O327   1.262       .  A
N323        O328   1.262       .  A
N326        O330   1.262       .  A
N326        O329   1.262       .  A
C331        C332   1.404       .  A
C331        C336   1.403       .  A
C331        H338   1.086       .  S
C332        C333   1.415       .  A
C333        C334   1.400       .  A
C333        N340   1.430       .  S
C334        C335   1.405       .  A
C334        H339   1.086       .  S
C335        C336   1.416       .  A
C336        N337   1.429       .  S
N337        O341   1.262       .  A
N337        O342   1.262       .  A
N340        O344   1.262       .  A
N340        O343   1.262       .  A
C345        C350   1.408   1_556  A
C345        C858   1.414       .  A
C345        H352   1.085       .  S
C346        C347   1.415       .  A
C346        C857   1.415       .  A
C347       C1884   1.411       .  A
C347        N354   1.426       .  S
C348        C349   1.413       .  A
C348       C1883   1.412   1_554  A
C348        H353   1.086       .  S
C349       C1374   1.414   1_455  A
C350       C1373   1.415       .  A
C350        N351   1.429       .  S
N351        O355   1.262       .  A
N351        O356   1.262       .  A
N354       O1382   1.262       .  A
N354        O357   1.261       .  A
O358       N1378   1.262       .  A
C359        C360   1.408       .  A
C359        C364   1.403   1_565  A
C359        H366   1.086       .  S
C360        C361   1.416       .  A
C361        C362   1.400   1_565  A
C361        N368   1.430       .  S
C362        C363   1.405       .  A
C362        H367   1.086       .  S
C363        C364   1.414       .  A
C364        N365   1.429       .  S
N365        O369   1.262       .  A
N365        O370   1.262       .  A
N368        O372   1.262       .  A
N368        O371   1.262       .  A
C373        C374   1.415       .  A
C373        C378   1.407       .  A
C373        H380   1.085       .  S
C374        C375   1.408       .  A
C375        C376   1.400       .  A
C375        N382   1.433       .  S
C376        C377   1.415       .  A
C376        H381   1.085       .  S
C377        C378   1.408       .  A
C378        N379   1.428       .  S
N379        O383   1.262       .  A
N379        O384   1.262       .  A
N382        O386   1.262       .  A
N382        O385   1.262       .  A
C387        C388   1.399       .  A
C387        C904   1.385       .  A
C387        H394   1.086       .  S
C388        C389   1.420       .  A
C389        C902   1.394       .  A
C389        N396   1.434       .  S
C390        C391   1.397       .  A
C390        C901   1.394   1_554  A
C390        H395   1.086       .  S
C391        C392   1.414       .  A
C392        C899   1.385   1_554  A
C392        N393   1.431       .  S
N393        O397   1.262   1_554  A
N393        O398   1.262       .  A
N396        O400   1.263       .  A
N396        O399   1.262       .  A
C401        C402   1.409       .  A
C401        C406   1.417       .  A
C401        H408   1.085       .  S
C402        C403   1.407       .  A
C403        C404   1.389       .  A
C403        N410   1.431       .  S
C404        C405   1.408       .  A
C404        H409   1.085       .  S
C405        C406   1.416       .  A
C406        N407   1.428       .  S
N407        O411   1.262       .  A
N407        O412   1.262       .  A
N410        O414   1.262       .  A
N410        O413   1.261       .  A
C415        C416   1.404       .  A
C415       C1444   1.394       .  A
C415        H422   1.086       .  S
C416       C1441   1.418       .  A
C417        C418   1.411       .  A
C417       C1440   1.418       .  A
C417        N424   1.429       .  S
C418        C419   1.407       .  A
C418        H423   1.086       .  S
C419        C420   1.418       .  A
C420       C1439   1.395       .  A
C420        N421   1.431       .  S
N421       O1449   1.261       .  A
N421        O426   1.260       .  A
N424        O428   1.262       .  A
N424       O1451   1.262       .  A
O425       N1445   1.261   1_655  A
O427       N1448   1.262       .  A
C429        C430   1.402       .  A
C429        C434   1.400   1_565  A
C429        H436   1.086       .  S
C430        C431   1.414       .  A
C431        C432   1.397   1_565  A
C431        N438   1.430       .  S
C432        C433   1.404       .  A
C432        H437   1.086       .  S
C433        C434   1.418       .  A
C434        N435   1.429       .  S
N435        O439   1.262       .  A
N435        O440   1.262       .  A
N438        O442   1.262       .  A
N438        O441   1.262       .  A
C443        C444   1.408       .  A
C443        C448   1.404       .  A
C443        H450   1.086       .  S
C444        C445   1.414       .  A
C445        C446   1.410       .  A
C445        N452   1.428       .  S
C446        C447   1.411       .  A
C446        H451   1.086       .  S
C447        C448   1.412       .  A
C448        N449   1.426       .  S
N449        O453   1.262       .  A
N449        O454   1.262       .  A
N452        O456   1.262       .  A
N452        O455   1.262       .  A
C457        C458   1.407       .  A
C457        C974   1.392   1_554  A
C457        H464   1.093       .  S
C458        C459   1.398       .  A
C459        C972   1.388   1_554  A
C459        N466   1.432       .  S
C460        C461   1.408       .  A
C460        C971   1.389       .  A
C460        H465   1.090       .  S
C461        C462   1.399       .  A
C462        C969   1.393       .  A
C462        N463   1.429       .  S
N463        O979   1.262       .  A
N463        O468   1.262       .  A
N466        O982   1.262       .  A
N466        O469   1.263       .  A
O467        N975   1.262       .  A
O470        N978   1.262       .  A
C471        C472   1.399       .  A
C471        C476   1.391       .  A
C471        H478   1.087       .  S
C472        C473   1.417       .  A
C473       C1498   1.411       .  A
C473        N480   1.429       .  S
C474        C475   1.405       .  A
C474       C1497   1.411   1_455  A
C474        H479   1.086       .  S
C475       C1500   1.412       .  A
C476       C1499   1.412       .  A
C476        N477   1.429       .  S
N477        O481   1.261       .  A
N477       O1506   1.262       .  A
N480        O484   1.262       .  A
N480        O483   1.262       .  A
O482       N1501   1.262   1_655  A
C485        C486   1.412       .  A
C485        C490   1.413       .  A
C485        H492   1.086       .  S
C486        C487   1.408       .  A
C487        C488   1.395       .  A
C487        N494   1.429       .  S
C488        C489   1.404       .  A
C488        H493   1.088       .  S
C489        C490   1.409       .  A
C490        N491   1.428       .  S
N491        O495   1.262       .  A
N491        O496   1.262       .  A
N494        O498   1.261       .  A
N494        O497   1.262       .  A
C499        C500   1.402       .  A
C499        C504   1.408   1_554  A
C499        H506   1.086       .  S
C500        C501   1.424   1_554  A
C501       C1014   1.413       .  A
C501       N1020   1.429       .  S
C502        C503   1.406       .  A
C502       C1013   1.411       .  A
C502        H507   1.086       .  S
C503       C1016   1.420       .  A
C504       C1015   1.421       .  A
C504        N505   1.426       .  S
N505        O509   1.261   1_556  A
N505       O1022   1.262       .  A
N508       C1013   1.429       .  S
N508        O512   1.262       .  A
N508       O1023   1.262       .  A
O510       N1017   1.262       .  A
O511       N1020   1.262       .  A
Fe513       O529   2.121       .  S
Fe513       O519   2.050       .  S
Fe513       O526   2.073       .  S
Fe513       O518   2.133       .  S
Fe513       O524   1.949       .  S
Fe514       O517   2.034       .  S
Fe514       O521   2.059       .  S
Fe514       O525   2.054       .  S
Fe514       O530   2.067       .  S
Fe514       O524   1.968       .  S
Fe515       O533   2.059       .  S
Fe515       O520   2.074       .  S
Fe515       O527   2.103       .  S
Fe515       O516   2.041       .  S
Fe515       O524   1.947       .  S
O516        C523   1.272       .  A
O517        C531   1.262       .  A
O518        C523   1.287       .  A
O519        C522   1.263       .  A
O520        C532   1.273       .  A
O521        C534   1.268       .  A
C522        O527   1.270       .  A
C522        C998   1.491       .  S
C523        C956   1.499       .  S
O525        C528   1.266       .  A
O526        C528   1.270       .  A
C528        C942   1.486       .  S
O529        C534   1.284       .  A
O530        C532   1.271       .  A
C531        O533   1.273       .  A
C531        C970   1.449       .  S
C532        C984   1.482       .  S
C534       C1012   1.511       .  S
Fe535       O551   2.097       .  S
Fe535       O541   2.047       .  S
Fe535       O548   2.082       .  S
Fe535       O540   2.110       .  S
Fe535       O546   1.952       .  S
Fe536       O539   2.027       .  S
Fe536       O543   2.095       .  S
Fe536       O547   2.056       .  S
Fe536       O552   2.095       .  S
Fe536       O546   1.964       .  S
Fe537       O555   2.050       .  S
Fe537       O542   2.059       .  S
Fe537       O549   2.090       .  S
Fe537       O538   2.039       .  S
Fe537       O546   1.944       .  S
O538        C545   1.267       .  A
O539        C553   1.260       .  A
O540        C545   1.283       .  A
O541        C544   1.265       .  A
O542        C554   1.273       .  A
O543        C556   1.276       .  A
C544        O549   1.273       .  A
C544        C914   1.482       .  S
C545        C889   1.498       .  S
O547        C550   1.266       .  A
O548        C550   1.271       .  A
C550        C872   1.492       .  S
O551        C556   1.278       .  A
O552        C554   1.275       .  A
C553        O555   1.268       .  A
C553        C900   1.468       .  S
C554        C928   1.496       .  S
C556       C1015   1.512       .  S
Fe557       O573   2.078       .  S
Fe557       O563   2.134       .  S
Fe557       O570   2.126       .  S
Fe557       O562   2.040       .  S
Fe557       O568   1.955       .  S
Fe558       O561   2.078       .  S
Fe558       O565   2.043       .  S
Fe558       O569   2.060       .  S
Fe558       O574   2.018       .  S
Fe558       O568   1.967       .  S
Fe559       O577   2.068       .  S
Fe559       O564   2.070       .  S
Fe559       O571   2.048       .  S
Fe559       O560   2.092       .  S
Fe559       O568   1.956       .  S
O560        C567   1.269       .  A
O561        C575   1.273       .  A
O562        C567   1.259       .  A
O563        C566   1.290       .  A
O564        C576   1.273       .  A
O565        C578   1.262       .  A
C566        O571   1.272       .  A
C566        C959   1.497       .  S
C567        C931   1.493       .  S
O569        C572   1.272       .  A
O570        C572   1.284       .  A
C572        C858   1.514       .  S
O573        C578   1.269       .  A
O574        C576   1.260       .  A
C575        O577   1.273       .  A
C575        C917   1.495       .  S
C576        C973   1.452       .  S
C578        C844   1.486       .  S
Fe579       O595   2.073       .  S
Fe579       O585   2.126       .  S
Fe579       O592   2.115       .  S
Fe579       O584   2.044       .  S
Fe579       O590   1.943       .  S
Fe580       O583   2.086       .  S
Fe580       O587   2.062       .  S
Fe580       O591   2.066       .  S
Fe580       O596   2.036       .  S
Fe580       O590   1.958       .  S
Fe581       O599   2.080       .  S
Fe581       O586   2.056       .  S
Fe581       O593   2.042       .  S
Fe581       O582   2.095       .  S
Fe581       O590   1.954       .  S
O582        C589   1.267       .  A
O583        C597   1.274       .  A
O584        C589   1.260       .  A
O585        C588   1.289       .  A
O586        C598   1.273       .  A
O587        C600   1.267       .  A
C588        O593   1.273       .  A
C588        C886   1.494       .  S
C589        C987   1.484       .  S
O591        C594   1.272       .  A
O592        C594   1.281       .  A
C594        C861   1.511       .  S
O595        C600   1.270       .  A
O596        C598   1.265       .  A
C597        O599   1.272       .  A
C597       C1001   1.488       .  S
C598        C903   1.465       .  S
C600        C833   1.490       .  S
Fe601       O617   2.079       .  S
Fe601       O607   2.087       .  S
Fe601       O614   2.076       .  S
Fe601       O606   2.054       .  S
Fe601       O612   1.951       .  S
Fe602       O605   2.081       .  S
Fe602       O609   2.052       .  S
Fe602       O613   2.091       .  S
Fe602       O618   2.039       .  S
Fe602       O612   1.957       .  S
Fe603       O621   2.067       .  S
Fe603       O608   2.059       .  S
Fe603       O615   2.064       .  S
Fe603       O604   2.085       .  S
Fe603       O612   1.942       .  S
O604        C611   1.270       .  A
O605        C619   1.273       .  A
O606        C611   1.263       .  A
O607        C610   1.283       .  A
O608        C620   1.271       .  A
O609        C622   1.265       .  A
C610        O615   1.274       .  A
C610        C763   1.489       .  S
C611        C802   1.485       .  S
O613        C616   1.275       .  A
O614        C616   1.278       .  A
C616        C816   1.500       .  S
O617        C622   1.267       .  A
O618        C620   1.263       .  A
C619        O621   1.272       .  A
C619        C788   1.488       .  S
C620        C777   1.474       .  S
C622        C945   1.490       .  S
Fe623       O639   2.072       .  S
Fe623       O629   2.145       .  S
Fe623       O636   2.132       .  S
Fe623       O628   2.044       .  S
Fe623       O634   1.949       .  S
Fe624       O627   2.064       .  S
Fe624       O631   2.056       .  S
Fe624       O635   2.044       .  S
Fe624       O640   2.041       .  S
Fe624       O634   1.953       .  S
Fe625       O643   2.082       .  S
Fe625       O630   2.051       .  S
Fe625       O637   2.026       .  S
Fe625       O626   2.098       .  S
Fe625       O634   1.951       .  S
O626        C633   1.268       .  A
O627        C641   1.270       .  A
O628        C633   1.260       .  A
O629        C632   1.292       .  A
O630        C642   1.272       .  A
O631        C644   1.268       .  A
C632        O637   1.269       .  A
C632        C707   1.502       .  S
C633        C732   1.479       .  S
O635        C638   1.267       .  A
O636        C638   1.284       .  A
C638        C819   1.503       .  S
O639        C644   1.269       .  A
O640        C642   1.268       .  A
C641        O643   1.271       .  A
C641        C746   1.480       .  S
C642        C721   1.466       .  S
C644        C875   1.488       .  S
Fe645       O661   2.112       .  S
Fe645       O651   2.043       .  S
Fe645       O658   2.068       .  S
Fe645       O650   2.131       .  S
Fe645       O656   1.951       .  S
Fe646       O649   2.054       .  S
Fe646       O653   2.046       .  S
Fe646       O657   2.070       .  S
Fe646       O662   2.071       .  S
Fe646       O656   1.952       .  S
Fe647       O665   2.048       .  S
Fe647       O652   2.072       .  S
Fe647       O659   2.091       .  S
Fe647       O648   2.030       .  S
Fe647       O656   1.952       .  S
O648        C655   1.270       .  A
O649        C663   1.271       .  A
O650        C655   1.287       .  A
O651        C654   1.260       .  A
O652        C664   1.269       .  A
O653        C666   1.266       .  A
C654        O659   1.266       .  A
C654        C749   1.471       .  S
C655        C760   1.491       .  S
O657        C660   1.272       .  A
O658        C660   1.270       .  A
C660        C847   1.488       .  S
O661        C666   1.279       .  A
O662        C664   1.270       .  A
C663        O665   1.272       .  A
C663        C774   1.455       .  S
C664        C735   1.482       .  S
C666        C690   1.503       .  S
Fe667       O683   2.098       .  S
Fe667       O673   2.052       .  S
Fe667       O680   2.088       .  S
Fe667       O672   2.094       .  S
Fe667       O678   1.945       .  S
Fe668       O671   2.034       .  S
Fe668       O675   2.074       .  S
Fe668       O679   2.056       .  S
Fe668       O684   2.076       .  S
Fe668       O678   1.954       .  S
Fe669       O687   2.049       .  S
Fe669       O674   2.065       .  S
Fe669       O681   2.090       .  S
Fe669       O670   2.060       .  S
Fe669       O678   1.943       .  S
O670        C677   1.271       .  A
O671        C685   1.265       .  A
O672        C677   1.286       .  A
O673        C676   1.263       .  A
O674        C686   1.272       .  A
O675        C688   1.270       .  A
C676        O681   1.270       .  A
C676        C791   1.485   1_455  S
C677        C704   1.481       .  S
O679        C682   1.268       .  A
O680        C682   1.271       .  A
C682        C830   1.495       .  S
O683        C688   1.276       .  A
O684        C686   1.270       .  A
C685        O687   1.269       .  A
C685        C718   1.466       .  S
C686        C805   1.482       .  S
C688        C693   1.494   1_455  S
C689        C694   1.407       .  A
C689        H696   1.086       .  S
C690        C691   1.414       .  A
C691       C1204   1.405   1_556  A
C691       N1722   1.429       .  S
C692       C1203   1.404   1_455  A
C692        C693   1.408   1_455  A
C692        H697   1.086       .  S
C693       C1718   1.408       .  A
C694       C1717   1.408       .  A
C694        N695   1.428       .  S
N695        O699   1.262       .  A
N695        O700   1.262       .  A
N698       C1715   1.429   1_455  S
N698        O702   1.262       .  A
N698       O1725   1.262       .  A
O701       N1722   1.262       .  A
C703        C704   1.389       .  A
C703        C708   1.394       .  A
C703        H710   1.087       .  S
C704        C705   1.418       .  A
C705        C706   1.409       .  A
C705        N712   1.428       .  S
C706        C707   1.406       .  A
C706        H711   1.085       .  S
C707        C708   1.425       .  A
C708        N709   1.423       .  S
N709        O713   1.262       .  A
N709        O714   1.261       .  A
N712        O716   1.262       .  A
N712        O715   1.262       .  A
C717        C718   1.408       .  A
C717        H724   1.085       .  S
C718        C719   1.408       .  A
C719        N726   1.430       .  S
C720        C721   1.405       .  A
C720        H725   1.085       .  S
C721        C722   1.406       .  A
C722        N723   1.429       .  S
N723        O727   1.262       .  A
N723        O728   1.262       .  A
N726        O730   1.262       .  A
N726        O729   1.261       .  A
C731        C732   1.403       .  A
C731        C736   1.398       .  A
C731        H738   1.087       .  S
C732        C733   1.408       .  A
C733        C734   1.410       .  A
C733        N740   1.428       .  S
C734        C735   1.409       .  A
C734        H739   1.086       .  S
C735        C736   1.410       .  A
C736        N737   1.430       .  S
N737        O741   1.262       .  A
N737        O742   1.262       .  A
N740        O744   1.262       .  A
N740        O743   1.262       .  A
C745        C746   1.411       .  A
C745       C1774   1.410   1_455  A
C745        H752   1.085       .  S
C746       C1771   1.408   1_455  A
C747       C1770   1.413       .  A
C747        C748   1.395       .  A
C747        N754   1.428       .  S
C748        C749   1.397       .  A
C748        H753   1.086       .  S
C749        C750   1.405       .  A
C750       C1769   1.410       .  A
C750        N751   1.428       .  S
N751        O755   1.262       .  A
N751        O756   1.262       .  A
N754        O758   1.262       .  A
N754       O1781   1.262       .  A
O757       N1778   1.262   1_655  A
C759        C760   1.412       .  A
C759        C764   1.399       .  A
C759        H766   1.086       .  S
C760        C761   1.409       .  A
C761        C762   1.404       .  A
C761        N768   1.429       .  S
C762        C763   1.413       .  A
C762        H767   1.086       .  S
C763        C764   1.407       .  A
C764        N765   1.429       .  S
N765        O769   1.262       .  A
N765        O770   1.261       .  A
N768        O772   1.262       .  A
N768        O771   1.262       .  A
C773        C774   1.396       .  A
C773        H780   1.087       .  S
C774        C775   1.404   1_556  A
C775        N782   1.430       .  S
C776        C777   1.404       .  A
C776        H781   1.087       .  S
C777        C778   1.416       .  A
C778        N779   1.429       .  S
N779        O784   1.262       .  A
N782        O785   1.262       .  A
C787        C788   1.410       .  A
C787        C792   1.407       .  A
C787        H794   1.087       .  S
C788        C789   1.411       .  A
C789       C1814   1.397       .  A
C789        N796   1.430       .  S
C790       C1813   1.399       .  A
C790        C791   1.407       .  A
C790        H795   1.087       .  S
C791       C1816   1.409       .  A
C792       C1815   1.410       .  A
C792        N793   1.428       .  S
N793        O797   1.262       .  A
N793       O1822   1.262       .  A
N796        O800   1.262       .  A
N796        O799   1.262       .  A
O798       N1817   1.262       .  A
C801        C802   1.402       .  A
C801        C806   1.406       .  A
C801        H808   1.086       .  S
C802        C803   1.417       .  A
C803        C804   1.396       .  A
C803        N810   1.429       .  S
C804        C805   1.398       .  A
C804        H809   1.087       .  S
C805        C806   1.417       .  A
C806        N807   1.428       .  S
N807        O811   1.262       .  A
N807        O812   1.261       .  A
N810        O814   1.262       .  A
N810        O813   1.262       .  A
C815        C816   1.404       .  A
C815        H822   1.085       .  S
C816        C817   1.420       .  A
C817        N824   1.429       .  S
C818        C819   1.406       .  A
C818        H823   1.084       .  S
C819        C820   1.421   1_556  A
C820        N821   1.428       .  S
N821        O825   1.262       .  A
N821        O826   1.262       .  A
N824        O828   1.261       .  A
N824        O827   1.262       .  A
C829        C830   1.407       .  A
C829        C834   1.401       .  A
C829        H836   1.086       .  S
C830        C831   1.418       .  A
C831        C832   1.402       .  A
C831        N838   1.430       .  S
C832        C833   1.405       .  A
C832        H837   1.086       .  S
C833        C834   1.414       .  A
C834        N835   1.429       .  S
N835        O839   1.262       .  A
N835        O840   1.262       .  A
N838        O842   1.262       .  A
N838        O841   1.262       .  A
C843        C844   1.404       .  A
C843        C848   1.403       .  A
C843        H850   1.086       .  S
C844        C845   1.415       .  A
C845        C846   1.399       .  A
C845        N852   1.430       .  S
C846        C847   1.404       .  A
C846        H851   1.086       .  S
C847        C848   1.416       .  A
C848        N849   1.429       .  S
N849        O853   1.262       .  A
N849        O854   1.262       .  A
N852        O856   1.262       .  A
N852        O855   1.262       .  A
C857        C862   1.411       .  A
C857        H864   1.085       .  S
C858        C859   1.414       .  A
C859       C1372   1.411   1_556  A
C859        N866   1.427       .  S
C860       C1371   1.411       .  A
C860        C861   1.412       .  A
C860        H865   1.085       .  S
C861       C1886   1.415   1_455  A
C862       C1885   1.415       .  A
C862        N863   1.428       .  S
N863        O867   1.262       .  A
N863        O868   1.262       .  A
N866       O1894   1.262       .  A
N866        O869   1.261       .  A
O870       N1890   1.262       .  A
C871        C872   1.407       .  A
C871        C876   1.402   1_565  A
C871        H878   1.086       .  S
C872        C873   1.416       .  A
C873        C874   1.399   1_565  A
C873        N880   1.430       .  S
C874        C875   1.405       .  A
C874        H879   1.086       .  S
C875        C876   1.414       .  A
C876        N877   1.429       .  S
N877        O881   1.262       .  A
N877        O882   1.262       .  A
N880        O884   1.262       .  A
N880        O883   1.262       .  A
C885        C886   1.415       .  A
C885        C890   1.407       .  A
C885        H892   1.085       .  S
C886        C887   1.408       .  A
C887        C888   1.400       .  A
C887        N894   1.432       .  S
C888        C889   1.416       .  A
C888        H893   1.085       .  S
C889        C890   1.408       .  A
C890        N891   1.428       .  S
N891        O895   1.262       .  A
N891        O896   1.262       .  A
N894        O898   1.262       .  A
N894        O897   1.262       .  A
C899        C900   1.399       .  A
C899        H906   1.086       .  S
C900        C901   1.420       .  A
C901        N908   1.433       .  S
C902        C903   1.397       .  A
C902        H907   1.086       .  S
C903        C904   1.415       .  A
C904        N905   1.431       .  S
N905        O909   1.262       .  A
N905        O910   1.262       .  A
N908        O912   1.263   1_556  A
N908        O911   1.262       .  A
C913        C914   1.409       .  A
C913        C918   1.416       .  A
C913        H920   1.085       .  S
C914        C915   1.408       .  A
C915        C916   1.389       .  A
C915        N922   1.431       .  S
C916        C917   1.408       .  A
C916        H921   1.085       .  S
C917        C918   1.416       .  A
C918        N919   1.428       .  S
N919        O923   1.262       .  A
N919        O924   1.262       .  A
N922        O926   1.262       .  A
N922        O925   1.261       .  A
C927        C928   1.404       .  A
C927       C1956   1.394       .  A
C927        H934   1.086       .  S
C928       C1953   1.418       .  A
C929       C1952   1.419       .  A
C929        C930   1.411       .  A
C929        N936   1.429       .  S
C930        C931   1.406       .  A
C930        H935   1.086       .  S
C931        C932   1.418       .  A
C932       C1951   1.394       .  A
C932        N933   1.431       .  S
N933       O1961   1.261       .  A
N933        O938   1.261       .  A
N936        O940   1.262       .  A
N936       O1963   1.262       .  A
O937       N1957   1.261   1_655  A
O939       N1960   1.262       .  A
C941        C942   1.404       .  A
C941        C946   1.402   1_565  A
C941        H948   1.086       .  S
C942        C943   1.414       .  A
C943        C944   1.398   1_565  A
C943        N950   1.430       .  S
C944        C945   1.405       .  A
C944        H949   1.086       .  S
C945        C946   1.417       .  A
C946        N947   1.429       .  S
N947        O951   1.262       .  A
N947        O952   1.262       .  A
N950        O954   1.262       .  A
N950        O953   1.262       .  A
C955        C956   1.408       .  A
C955        C960   1.403       .  A
C955        H962   1.086       .  S
C956        C957   1.413       .  A
C957        C958   1.409       .  A
C957        N964   1.428       .  S
C958        C959   1.411       .  A
C958        H963   1.086       .  S
C959        C960   1.411       .  A
C960        N961   1.427       .  S
N961        O965   1.262       .  A
N961        O966   1.262       .  A
N964        O968   1.262       .  A
N964        O967   1.262       .  A
C969        C970   1.407       .  A
C969        H976   1.090       .  S
C970        C971   1.398       .  A
C971        N978   1.432       .  S
C972        C973   1.408       .  A
C972        H977   1.093       .  S
C973        C974   1.399       .  A
C974        N975   1.429       .  S
N975        O980   1.262       .  A
N978        O981   1.263       .  A
C983        C984   1.398       .  A
C983        C988   1.392       .  A
C983        H990   1.087       .  S
C984        C985   1.418       .  A
C985       C2010   1.413       .  A
C985        N992   1.429       .  S
C986       C2009   1.413   1_455  A
C986        C987   1.405       .  A
C986        H991   1.085       .  S
C987       C2012   1.412       .  A
C988       C2011   1.412       .  A
C988        N989   1.428       .  S
N989        O993   1.261       .  A
N989       O2018   1.262       .  A
N992        O996   1.262       .  A
N992        O995   1.262       .  A
O994       N2013   1.262       .  A
C997        C998   1.412       .  A
C997       C1002   1.415       .  A
C997       H1004   1.086       .  S
C998        C999   1.409       .  A
C999       C1000   1.396       .  A
C999       N1006   1.429       .  S
C1000      C1001   1.405       .  A
C1000      H1005   1.088       .  S
C1001      C1002   1.410       .  A
C1002      N1003   1.428       .  S
N1003      O1007   1.262       .  A
N1003      O1008   1.262       .  A
N1006      O1010   1.261       .  A
N1006      O1009   1.262       .  A
C1011      C1012   1.402       .  A
C1011      C1016   1.407       .  A
C1011      H1018   1.086       .  S
C1012      C1013   1.424       .  A
C1014      C1015   1.406       .  A
C1014      H1019   1.086       .  S
C1016      N1017   1.426       .  S
N1017      O1021   1.261       .  A
N1020      O1024   1.262   1_556  A
Fe1025     O1041   2.126       .  S
Fe1025     O1031   2.050       .  S
Fe1025     O1038   2.076       .  S
Fe1025     O1030   2.134       .  S
Fe1025     O1036   1.948       .  S
Fe1026     O1029   2.024       .  S
Fe1026     O1033   2.061       .  S
Fe1026     O1037   2.043       .  S
Fe1026     O1042   2.065       .  S
Fe1026     O1036   1.968       .  S
Fe1027     O1045   2.060       .  S
Fe1027     O1032   2.069       .  S
Fe1027     O1039   2.096       .  S
Fe1027     O1028   2.044       .  S
Fe1027     O1036   1.948       .  S
O1028      C1035   1.272       .  A
O1029      C1043   1.260       .  A
O1030      C1035   1.287       .  A
O1031      C1034   1.263       .  A
O1032      C1044   1.273       .  A
O1033      C1046   1.269       .  A
C1034      O1039   1.269       .  A
C1034      C1510   1.487       .  S
C1035      C1468   1.500       .  S
O1037      C1040   1.264       .  A
O1038      C1040   1.270       .  A
C1040      C1454   1.483       .  S
O1041      C1046   1.285       .  A
O1042      C1044   1.271       .  A
C1043      O1045   1.273       .  A
C1043      C1482   1.448       .  S
C1044      C1496   1.480       .  S
C1046      C1524   1.513       .  S
Fe1047     O1063   2.094       .  S
Fe1047     O1053   2.052       .  S
Fe1047     O1060   2.088       .  S
Fe1047     O1052   2.110       .  S
Fe1047     O1058   1.952       .  S
Fe1048     O1051   2.025       .  S
Fe1048     O1055   2.096       .  S
Fe1048     O1059   2.057       .  S
Fe1048     O1064   2.098       .  S
Fe1048     O1058   1.963       .  S
Fe1049     O1067   2.051       .  S
Fe1049     O1054   2.060       .  S
Fe1049     O1061   2.090       .  S
Fe1049     O1050   2.041       .  S
Fe1049     O1058   1.944       .  S
O1050      C1057   1.268       .  A
O1051      C1065   1.259       .  A
O1052      C1057   1.284       .  A
O1053      C1056   1.266       .  A
O1054      C1066   1.273       .  A
O1055      C1068   1.276       .  A
C1056      O1061   1.273       .  A
C1056      C1426   1.484       .  S
C1057      C1401   1.498       .  S
O1059      C1062   1.266       .  A
O1060      C1062   1.273       .  A
C1062      C1384   1.495       .  S
O1063      C1068   1.278       .  A
O1064      C1066   1.275       .  A
C1065      O1067   1.268       .  A
C1065      C1412   1.466       .  S
C1066      C1440   1.498       .  S
C1068      C1527   1.510       .  S
Fe1069     O1085   2.081       .  S
Fe1069     O1075   2.136       .  S
Fe1069     O1082   2.126       .  S
Fe1069     O1074   2.042       .  S
Fe1069     O1080   1.957       .  S
Fe1070     O1073   2.080       .  S
Fe1070     O1077   2.047       .  S
Fe1070     O1081   2.061       .  S
Fe1070     O1086   2.021       .  S
Fe1070     O1080   1.969       .  S
Fe1071     O1089   2.069       .  S
Fe1071     O1076   2.069       .  S
Fe1071     O1083   2.049       .  S
Fe1071     O1072   2.092       .  S
Fe1071     O1080   1.956       .  S
O1072      C1079   1.269       .  A
O1073      C1087   1.273       .  A
O1074      C1079   1.260       .  A
O1075      C1078   1.290       .  A
O1076      C1088   1.273       .  A
O1077      C1090   1.263       .  A
C1078      O1083   1.273       .  A
C1078      C1471   1.499       .  S
C1079      C1443   1.494       .  S
O1081      C1084   1.272       .  A
O1082      C1084   1.284       .  A
C1084      C1370   1.514       .  S
O1085      C1090   1.270       .  A
O1086      C1088   1.261       .  A
C1087      O1089   1.273       .  A
C1087      C1429   1.497       .  S
C1088      C1485   1.453       .  S
C1090      C1356   1.488       .  S
Fe1091     O1107   2.072       .  S
Fe1091     O1097   2.126       .  S
Fe1091     O1104   2.116       .  S
Fe1091     O1096   2.041       .  S
Fe1091     O1102   1.941       .  S
Fe1092     O1095   2.083       .  S
Fe1092     O1099   2.060       .  S
Fe1092     O1103   2.064       .  S
Fe1092     O1108   2.035       .  S
Fe1092     O1102   1.956       .  S
Fe1093     O1111   2.076       .  S
Fe1093     O1098   2.056       .  S
Fe1093     O1105   2.041       .  S
Fe1093     O1094   2.091       .  S
Fe1093     O1102   1.952       .  S
O1094      C1101   1.266       .  A
O1095      C1109   1.273       .  A
O1096      C1101   1.260       .  A
O1097      C1100   1.288       .  A
O1098      C1110   1.272       .  A
O1099      C1112   1.267       .  A
C1100      O1105   1.273       .  A
C1100      C1398   1.495       .  S
C1101      C1499   1.481       .  S
O1103      C1106   1.271       .  A
O1104      C1106   1.282       .  A
C1106      C1373   1.510       .  S
O1107      C1112   1.270       .  A
O1108      C1110   1.265       .  A
C1109      O1111   1.272       .  A
C1109      C1513   1.485       .  S
C1110      C1415   1.464       .  S
C1112      C1345   1.489       .  S
Fe1113     O1129   2.066       .  S
Fe1113     O1119   2.090       .  S
Fe1113     O1126   2.082       .  S
Fe1113     O1118   2.045       .  S
Fe1113     O1124   1.955       .  S
Fe1114     O1117   2.080       .  S
Fe1114     O1121   2.057       .  S
Fe1114     O1125   2.090       .  S
Fe1114     O1130   2.041       .  S
Fe1114     O1124   1.963       .  S
Fe1115     O1133   2.071       .  S
Fe1115     O1120   2.055       .  S
Fe1115     O1127   2.057       .  S
Fe1115     O1116   2.087       .  S
Fe1115     O1124   1.949       .  S
O1116      C1123   1.271       .  A
O1117      C1131   1.273       .  A
O1118      C1123   1.262       .  A
O1119      C1122   1.281       .  A
O1120      C1132   1.270       .  A
O1121      C1134   1.266       .  A
C1122      O1127   1.272       .  A
C1122      C1275   1.492       .  S
C1123      C1314   1.482       .  S
O1125      C1128   1.274       .  A
O1126      C1128   1.278       .  A
C1128      C1328   1.504       .  S
O1129      C1134   1.265       .  A
O1130      C1132   1.264       .  A
C1131      O1133   1.273       .  A
C1131      C1300   1.489       .  S
C1132      C1289   1.472       .  S
C1134      C1457   1.487       .  S
Fe1135     O1151   2.077       .  S
Fe1135     O1141   2.140       .  S
Fe1135     O1148   2.119       .  S
Fe1135     O1140   2.056       .  S
Fe1135     O1146   1.950       .  S
Fe1136     O1139   2.070       .  S
Fe1136     O1143   2.064       .  S
Fe1136     O1147   2.050       .  S
Fe1136     O1152   2.042       .  S
Fe1136     O1146   1.949       .  S
Fe1137     O1155   2.082       .  S
Fe1137     O1142   2.053       .  S
Fe1137     O1149   2.027       .  S
Fe1137     O1138   2.103       .  S
Fe1137     O1146   1.948       .  S
O1138      C1145   1.269       .  A
O1139      C1153   1.271       .  A
O1140      C1145   1.261       .  A
O1141      C1144   1.290       .  A
O1142      C1154   1.274       .  A
O1143      C1156   1.271       .  A
C1144      O1149   1.268       .  A
C1144      C1219   1.494       .  S
C1145      C1244   1.481       .  S
O1147      C1150   1.267       .  A
O1148      C1150   1.281       .  A
C1150      C1331   1.500       .  S
O1151      C1156   1.272       .  A
O1152      C1154   1.269       .  A
C1153      O1155   1.271       .  A
C1153      C1258   1.484       .  S
C1154      C1233   1.465       .  S
C1156      C1387   1.490       .  S
Fe1157     O1173   2.109       .  S
Fe1157     O1163   2.045       .  S
Fe1157     O1170   2.072       .  S
Fe1157     O1162   2.122       .  S
Fe1157     O1168   1.951       .  S
Fe1158     O1161   2.045       .  S
Fe1158     O1165   2.053       .  S
Fe1158     O1169   2.067       .  S
Fe1158     O1174   2.071       .  S
Fe1158     O1168   1.951       .  S
Fe1159     O1177   2.058       .  S
Fe1159     O1164   2.084       .  S
Fe1159     O1171   2.100       .  S
Fe1159     O1160   2.039       .  S
Fe1159     O1168   1.960       .  S
O1160      C1167   1.273       .  A
O1161      C1175   1.269       .  A
O1162      C1167   1.286       .  A
O1163      C1166   1.261       .  A
O1164      C1176   1.269       .  A
O1165      C1178   1.268       .  A
C1166      O1171   1.268       .  A
C1166      C1261   1.478       .  S
C1167      C1272   1.489       .  S
O1169      C1172   1.271       .  A
O1170      C1172   1.270       .  A
C1172      C1359   1.491       .  S
O1173      C1178   1.279       .  A
O1174      C1176   1.271       .  A
C1175      O1177   1.275       .  A
C1175      C1286   1.460       .  S
C1176      C1247   1.481       .  S
C1178      C1202   1.504       .  S
Fe1179     O1195   2.098       .  S
Fe1179     O1185   2.051       .  S
Fe1179     O1192   2.087       .  S
Fe1179     O1184   2.097       .  S
Fe1179     O1190   1.945       .  S
Fe1180     O1183   2.037       .  S
Fe1180     O1187   2.070       .  S
Fe1180     O1191   2.054       .  S
Fe1180     O1196   2.066       .  S
Fe1180     O1190   1.955       .  S
Fe1181     O1199   2.052       .  S
Fe1181     O1186   2.072       .  S
Fe1181     O1193   2.095       .  S
Fe1181     O1182   2.060       .  S
Fe1181     O1190   1.943       .  S
O1182      C1189   1.272       .  A
O1183      C1197   1.266       .  A
O1184      C1189   1.286       .  A
O1185      C1188   1.264       .  A
O1186      C1198   1.273       .  A
O1187      C1200   1.269       .  A
C1188      O1193   1.272       .  A
C1188      C1303   1.490       .  S
C1189      C1216   1.489       .  S
O1191      C1194   1.267       .  A
O1192      C1194   1.271       .  A
C1194      C1342   1.493       .  S
O1195      C1200   1.277       .  A
O1196      C1198   1.268       .  A
C1197      O1199   1.269       .  A
C1197      C1230   1.472       .  S
C1198      C1317   1.483       .  S
C1200      C1205   1.493       .  S
C1201      C1714   1.415   1_554  A
C1201      C1206   1.406       .  A
C1201      H1208   1.085       .  S
C1202      C1713   1.415       .  A
C1202      C1203   1.414       .  A
C1204      C1205   1.409       .  A
C1204      H1209   1.085       .  S
C1206      N1207   1.429       .  S
N1207      O1211   1.262       .  A
N1207      O1212   1.262       .  A
N1210      O1214   1.262       .  A
C1215      C1216   1.396       .  A
C1215      C1220   1.399       .  A
C1215      H1222   1.086       .  S
C1216      C1217   1.422       .  A
C1217      C1218   1.406       .  A
C1217      N1224   1.429       .  S
C1218      C1219   1.401       .  A
C1218      H1223   1.085       .  S
C1219      C1220   1.424       .  A
C1220      N1221   1.429       .  S
N1221      O1225   1.262       .  A
N1221      O1226   1.262       .  A
N1224      O1228   1.262       .  A
N1224      O1227   1.262       .  A
C1229      C1230   1.410       .  A
C1229      C1746   1.396   1_554  A
C1229      H1236   1.087       .  S
C1230      C1231   1.411       .  A
C1231      C1744   1.385   1_554  A
C1231      N1238   1.430       .  S
C1232      C1743   1.386       .  A
C1232      C1233   1.403       .  A
C1232      H1237   1.087       .  S
C1233      C1234   1.405       .  A
C1234      C1741   1.394       .  A
C1234      N1235   1.429       .  S
N1235      O1239   1.262       .  A
N1235      O1240   1.262       .  A
N1238      O1242   1.262       .  A
N1238      O1241   1.262       .  A
C1243      C1244   1.407       .  A
C1243      C1248   1.405       .  A
C1243      H1250   1.088       .  S
C1244      C1245   1.407       .  A
C1245      C1246   1.405       .  A
C1245      N1252   1.428       .  S
C1246      C1247   1.407       .  A
C1246      H1251   1.087       .  S
C1247      C1248   1.408       .  A
C1248      N1249   1.429       .  S
N1249      O1253   1.262       .  A
N1249      O1254   1.262       .  A
N1252      O1256   1.262       .  A
N1252      O1255   1.262       .  A
C1257      C1258   1.411       .  A
C1257      H1264   1.085       .  S
C1259      C1260   1.397       .  A
C1259      N1266   1.427   1_655  S
C1260      C1261   1.400       .  A
C1260      H1265   1.086       .  S
C1261      C1262   1.407       .  A
C1262      N1263   1.428       .  S
N1263      O1267   1.262       .  A
N1263      O1268   1.262       .  A
N1266      O1270   1.262       .  A
C1271      C1272   1.411       .  A
C1271      C1276   1.401       .  A
C1271      H1278   1.086       .  S
C1272      C1273   1.408       .  A
C1273      C1274   1.402       .  A
C1273      N1280   1.429       .  S
C1274      C1275   1.413       .  A
C1274      H1279   1.086       .  S
C1275      C1276   1.409       .  A
C1276      N1277   1.430       .  S
N1277      O1281   1.262       .  A
N1277      O1282   1.262       .  A
N1280      O1284   1.262       .  A
N1280      O1283   1.262       .  A
C1285      C1286   1.396       .  A
C1285      C1802   1.397       .  A
C1285      H1292   1.087       .  S
C1286      C1287   1.408       .  A
C1287      C1800   1.388       .  A
C1287      N1294   1.429       .  S
C1288      C1799   1.390       .  A
C1288      C1289   1.406       .  A
C1288      H1293   1.087       .  S
C1289      C1290   1.416   1_554  A
C1290      C1797   1.395       .  A
C1290      N1291   1.430       .  S
N1291      O1807   1.262       .  A
N1291      O1296   1.262       .  A
N1294      O1810   1.261       .  A
N1294      O1297   1.262       .  A
O1295      N1803   1.262       .  A
O1298      N1806   1.262       .  A
C1299      C1300   1.411       .  A
C1299      C1304   1.408       .  A
C1299      H1306   1.086       .  S
C1300      C1301   1.410       .  A
C1301      N1308   1.430       .  S
C1302      C1303   1.409       .  A
C1302      H1307   1.087       .  S
C1304      N1305   1.428       .  S
N1305      O1309   1.262   1_655  A
N1308      O1312   1.262       .  A
N1308      O1311   1.262       .  A
C1313      C1314   1.399       .  A
C1313      C1318   1.405       .  A
C1313      H1320   1.086       .  S
C1314      C1315   1.417       .  A
C1315      C1316   1.396       .  A
C1315      N1322   1.429       .  S
C1316      C1317   1.397       .  A
C1316      H1321   1.086       .  S
C1317      C1318   1.419       .  A
C1318      N1319   1.428       .  S
N1319      O1323   1.262       .  A
N1319      O1324   1.261       .  A
N1322      O1326   1.262       .  A
N1322      O1325   1.262       .  A
C1327      C1328   1.402       .  A
C1327      C1844   1.400       .  A
C1327      H1334   1.085       .  S
C1328      C1329   1.420       .  A
C1329      C1842   1.415   1_554  A
C1329      N1336   1.429       .  S
C1330      C1841   1.412       .  A
C1330      C1331   1.405       .  A
C1330      H1335   1.085       .  S
C1331      C1332   1.419       .  A
C1332      C1839   1.400       .  A
C1332      N1333   1.428       .  S
N1333      O1337   1.262       .  A
N1333      O1338   1.262       .  A
N1336      O1340   1.260       .  A
N1336      O1339   1.262       .  A
C1341      C1342   1.407       .  A
C1341      C1346   1.401       .  A
C1341      H1348   1.086       .  S
C1342      C1343   1.418       .  A
C1343      C1344   1.402       .  A
C1343      N1350   1.429       .  S
C1344      C1345   1.404       .  A
C1344      H1349   1.086       .  S
C1345      C1346   1.414       .  A
C1346      N1347   1.430       .  S
N1347      O1351   1.262       .  A
N1347      O1352   1.262       .  A
N1350      O1354   1.262       .  A
N1350      O1353   1.262       .  A
C1355      C1356   1.405       .  A
C1355      C1360   1.404       .  A
C1355      H1362   1.086       .  S
C1356      C1357   1.415       .  A
C1357      C1358   1.400       .  A
C1357      N1364   1.430       .  S
C1358      C1359   1.405       .  A
C1358      H1363   1.086       .  S
C1359      C1360   1.417       .  A
C1360      N1361   1.429       .  S
N1361      O1365   1.262       .  A
N1361      O1366   1.262       .  A
N1364      O1368   1.262       .  A
N1364      O1367   1.262       .  A
C1369      C1882   1.414   1_554  A
C1369      C1374   1.408       .  A
C1369      H1376   1.085   1_554  S
C1370      C1881   1.414       .  A
C1370      C1371   1.414   1_655  A
C1371      N1378   1.427       .  S
C1372      C1373   1.413       .  A
C1372      H1377   1.086       .  S
C1374      N1375   1.429       .  S
N1375      O1379   1.262       .  A
N1375      O1380   1.262       .  A
N1378      O1381   1.261       .  A
C1383      C1384   1.408       .  A
C1383      C1388   1.403   1_565  A
C1383      H1390   1.086       .  S
C1384      C1385   1.416       .  A
C1385      C1386   1.401   1_565  A
C1385      N1392   1.430       .  S
C1386      C1387   1.405       .  A
C1386      H1391   1.086       .  S
C1387      C1388   1.414       .  A
C1388      N1389   1.429       .  S
N1389      O1393   1.262       .  A
N1389      O1394   1.262       .  A
N1392      O1396   1.262       .  A
N1392      O1395   1.262       .  A
C1397      C1398   1.415       .  A
C1397      C1402   1.406       .  A
C1397      H1404   1.085       .  S
C1398      C1399   1.408       .  A
C1399      C1400   1.401       .  A
C1399      N1406   1.433       .  S
C1400      C1401   1.416       .  A
C1400      H1405   1.085       .  S
C1401      C1402   1.408       .  A
C1402      N1403   1.428       .  S
N1403      O1407   1.262       .  A
N1403      O1408   1.262       .  A
N1406      O1410   1.262       .  A
N1406      O1409   1.262       .  A
C1411      C1412   1.398       .  A
C1411      C1928   1.385       .  A
C1411      H1418   1.087       .  S
C1412      C1413   1.420       .  A
C1413      C1926   1.393       .  A
C1413      N1420   1.433       .  S
C1414      C1925   1.395   1_554  A
C1414      C1415   1.397       .  A
C1414      H1419   1.086       .  S
C1415      C1416   1.414       .  A
C1416      C1923   1.384   1_554  A
C1416      N1417   1.431       .  S
N1417      O1421   1.262   1_554  A
N1417      O1422   1.262       .  A
N1420      O1424   1.263       .  A
N1420      O1423   1.261       .  A
C1425      C1426   1.409       .  A
C1425      C1430   1.417       .  A
C1425      H1432   1.085       .  S
C1426      C1427   1.407       .  A
C1427      C1428   1.390       .  A
C1427      N1434   1.431       .  S
C1428      C1429   1.408       .  A
C1428      H1433   1.085       .  S
C1429      C1430   1.416       .  A
C1430      N1431   1.428       .  S
N1431      O1435   1.262       .  A
N1431      O1436   1.262       .  A
N1434      O1438   1.262       .  A
N1434      O1437   1.261       .  A
C1439      C1440   1.405       .  A
C1439      H1446   1.086       .  S
C1441      C1442   1.411   1_455  A
C1441      N1448   1.429       .  S
C1442      C1443   1.407       .  A
C1442      H1447   1.086       .  S
C1443      C1444   1.418   1_655  A
C1444      N1445   1.431       .  S
N1445      O1450   1.261       .  A
N1448      O1452   1.262       .  A
C1453      C1454   1.402       .  A
C1453      C1458   1.400   1_565  A
C1453      H1460   1.086       .  S
C1454      C1455   1.415       .  A
C1455      C1456   1.397   1_565  A
C1455      N1462   1.431       .  S
C1456      C1457   1.404       .  A
C1456      H1461   1.086       .  S
C1457      C1458   1.417       .  A
C1458      N1459   1.429       .  S
N1459      O1463   1.262       .  A
N1459      O1464   1.262       .  A
N1462      O1466   1.262       .  A
N1462      O1465   1.262       .  A
C1467      C1468   1.409       .  A
C1467      C1472   1.405       .  A
C1467      H1474   1.086       .  S
C1468      C1469   1.413       .  A
C1469      C1470   1.409       .  A
C1469      N1476   1.428       .  S
C1470      C1471   1.411       .  A
C1470      H1475   1.086       .  S
C1471      C1472   1.412       .  A
C1472      N1473   1.427       .  S
N1473      O1477   1.262       .  A
N1473      O1478   1.262       .  A
N1476      O1480   1.262       .  A
N1476      O1479   1.262       .  A
C1481      C1482   1.407       .  A
C1481      C1998   1.391   1_554  A
C1481      H1488   1.092       .  S
C1482      C1483   1.398       .  A
C1483      C1996   1.388   1_554  A
C1483      N1490   1.432       .  S
C1484      C1995   1.389       .  A
C1484      C1485   1.409       .  A
C1484      H1489   1.086       .  S
C1485      C1486   1.399       .  A
C1486      C1993   1.394       .  A
C1486      N1487   1.430       .  S
N1487      O2003   1.262       .  A
N1487      O1492   1.262       .  A
N1490      O2006   1.262       .  A
N1490      O1493   1.263       .  A
O1491      N1999   1.262       .  A
O1494      N2002   1.262       .  A
C1495      C1496   1.399       .  A
C1495      C1500   1.391   1_655  A
C1495      H1502   1.087       .  S
C1496      C1497   1.417       .  A
C1497      N1504   1.429       .  S
C1498      C1499   1.405       .  A
C1498      H1503   1.085       .  S
C1500      N1501   1.429       .  S
N1501      O1505   1.261       .  A
N1504      O1508   1.262       .  A
N1504      O1507   1.262       .  A
C1509      C1510   1.412       .  A
C1509      C1514   1.413       .  A
C1509      H1516   1.086       .  S
C1510      C1511   1.408       .  A
C1511      C1512   1.395       .  A
C1511      N1518   1.428       .  S
C1512      C1513   1.404       .  A
C1512      H1517   1.088       .  S
C1513      C1514   1.409       .  A
C1514      N1515   1.428       .  S
N1515      O1519   1.262       .  A
N1515      O1520   1.262       .  A
N1518      O1522   1.261       .  A
N1518      O1521   1.262       .  A
C1523      C1524   1.402       .  A
C1523      C1528   1.408   1_554  A
C1523      H1530   1.086       .  S
C1524      C1525   1.424   1_554  A
C1525      C2038   1.413       .  A
C1525      N2044   1.429       .  S
C1526      C2037   1.412       .  A
C1526      C1527   1.406       .  A
C1526      H1531   1.086       .  S
C1527      C2040   1.421       .  A
C1528      C2039   1.421       .  A
C1528      N1529   1.426       .  S
N1529      O1533   1.261   1_556  A
N1529      O2046   1.262       .  A
N1532      C2037   1.429       .  S
N1532      O1536   1.262       .  A
N1532      O2047   1.262       .  A
O1534      N2041   1.262       .  A
O1535      N2044   1.262       .  A
Fe1537     O1553   2.124       .  S
Fe1537     O1543   2.050       .  S
Fe1537     O1550   2.075       .  S
Fe1537     O1542   2.134       .  S
Fe1537     O1548   1.950       .  S
Fe1538     O1541   2.031       .  S
Fe1538     O1545   2.060       .  S
Fe1538     O1549   2.050       .  S
Fe1538     O1554   2.067       .  S
Fe1538     O1548   1.970       .  S
Fe1539     O1557   2.060       .  S
Fe1539     O1544   2.072       .  S
Fe1539     O1551   2.101       .  S
Fe1539     O1540   2.043       .  S
Fe1539     O1548   1.948       .  S
O1540      C1547   1.272       .  A
O1541      C1555   1.261       .  A
O1542      C1547   1.287       .  A
O1543      C1546   1.263       .  A
O1544      C1556   1.273       .  A
O1545      C1558   1.269       .  A
C1546      O1551   1.270       .  A
C1546      C2022   1.489       .  S
C1547      C1980   1.500       .  S
O1549      C1552   1.265       .  A
O1550      C1552   1.270       .  A
C1552      C1966   1.486       .  S
O1553      C1558   1.285       .  A
O1554      C1556   1.271       .  A
C1555      O1557   1.273       .  A
C1555      C1994   1.450       .  S
C1556      C2008   1.482       .  S
C1558      C2036   1.512       .  S
Fe1559     O1575   2.098       .  S
Fe1559     O1565   2.047       .  S
Fe1559     O1572   2.082       .  S
Fe1559     O1564   2.112       .  S
Fe1559     O1570   1.952       .  S
Fe1560     O1563   2.027       .  S
Fe1560     O1567   2.094       .  S
Fe1560     O1571   2.053       .  S
Fe1560     O1576   2.094       .  S
Fe1560     O1570   1.964       .  S
Fe1561     O1579   2.050       .  S
Fe1561     O1566   2.060       .  S
Fe1561     O1573   2.091       .  S
Fe1561     O1562   2.041       .  S
Fe1561     O1570   1.944       .  S
O1562      C1569   1.267       .  A
O1563      C1577   1.260       .  A
O1564      C1569   1.284       .  A
O1565      C1568   1.265       .  A
O1566      C1578   1.273       .  A
O1567      C1580   1.276       .  A
C1568      O1573   1.273       .  A
C1568      C1938   1.482       .  S
C1569      C1913   1.500       .  S
O1571      C1574   1.265       .  A
O1572      C1574   1.272       .  A
C1574      C1896   1.491       .  S
O1575      C1580   1.278       .  A
O1576      C1578   1.274       .  A
C1577      O1579   1.268       .  A
C1577      C1924   1.468       .  S
C1578      C1952   1.496       .  S
C1580      C2039   1.512       .  S
Fe1581     O1597   2.080       .  S
Fe1581     O1587   2.136       .  S
Fe1581     O1594   2.127       .  S
Fe1581     O1586   2.041       .  S
Fe1581     O1592   1.956       .  S
Fe1582     O1585   2.078       .  S
Fe1582     O1589   2.042       .  S
Fe1582     O1593   2.060       .  S
Fe1582     O1598   2.016       .  S
Fe1582     O1592   1.968       .  S
Fe1583     O1601   2.068       .  S
Fe1583     O1588   2.068       .  S
Fe1583     O1595   2.048       .  S
Fe1583     O1584   2.091       .  S
Fe1583     O1592   1.956       .  S
O1584      C1591   1.269       .  A
O1585      C1599   1.273       .  A
O1586      C1591   1.260       .  A
O1587      C1590   1.290       .  A
O1588      C1600   1.272       .  A
O1589      C1602   1.262       .  A
C1590      O1595   1.273       .  A
C1590      C1983   1.498       .  S
C1591      C1955   1.494       .  S
O1593      C1596   1.271       .  A
O1594      C1596   1.284       .  A
C1596      C1882   1.514       .  S
O1597      C1602   1.270       .  A
O1598      C1600   1.260       .  A
C1599      O1601   1.273       .  A
C1599      C1941   1.496       .  S
C1600      C1997   1.451       .  S
C1602      C1868   1.487       .  S
Fe1603     O1619   2.072       .  S
Fe1603     O1609   2.127       .  S
Fe1603     O1616   2.119       .  S
Fe1603     O1608   2.045       .  S
Fe1603     O1614   1.944       .  S
Fe1604     O1607   2.085       .  S
Fe1604     O1611   2.057       .  S
Fe1604     O1615   2.066       .  S
Fe1604     O1620   2.033       .  S
Fe1604     O1614   1.959       .  S
Fe1605     O1623   2.080       .  S
Fe1605     O1610   2.056       .  S
Fe1605     O1617   2.043       .  S
Fe1605     O1606   2.094       .  S
Fe1605     O1614   1.954       .  S
O1606      C1613   1.267       .  A
O1607      C1621   1.273       .  A
O1608      C1613   1.261       .  A
O1609      C1612   1.289       .  A
O1610      C1622   1.273       .  A
O1611      C1624   1.266       .  A
C1612      O1617   1.274       .  A
C1612      C1910   1.495       .  S
C1613      C2011   1.484       .  S
O1615      C1618   1.272       .  A
O1616      C1618   1.282       .  A
C1618      C1885   1.514       .  S
O1619      C1624   1.270       .  A
O1620      C1622   1.264       .  A
C1621      O1623   1.272       .  A
C1621      C2025   1.488       .  S
C1622      C1927   1.465       .  S
C1624      C1857   1.488       .  S
Fe1625     O1641   2.075       .  S
Fe1625     O1631   2.090       .  S
Fe1625     O1638   2.082       .  S
Fe1625     O1630   2.051       .  S
Fe1625     O1636   1.950       .  S
Fe1626     O1629   2.079       .  S
Fe1626     O1633   2.055       .  S
Fe1626     O1637   2.087       .  S
Fe1626     O1642   2.042       .  S
Fe1626     O1636   1.958       .  S
Fe1627     O1645   2.068       .  S
Fe1627     O1632   2.057       .  S
Fe1627     O1639   2.062       .  S
Fe1627     O1628   2.084       .  S
Fe1627     O1636   1.944       .  S
O1628      C1635   1.270       .  A
O1629      C1643   1.272       .  A
O1630      C1635   1.263       .  A
O1631      C1634   1.282       .  A
O1632      C1644   1.271       .  A
O1633      C1646   1.266       .  A
C1634      O1639   1.273       .  A
C1634      C1787   1.491       .  S
C1635      C1826   1.482       .  S
O1637      C1640   1.273       .  A
O1638      C1640   1.278       .  A
C1640      C1840   1.502       .  S
O1641      C1646   1.267       .  A
O1642      C1644   1.264       .  A
C1643      O1645   1.272       .  A
C1643      C1812   1.483       .  S
C1644      C1801   1.477       .  S
C1646      C1969   1.490       .  S
Fe1647     O1663   2.067       .  S
Fe1647     O1653   2.135       .  S
Fe1647     O1660   2.123       .  S
Fe1647     O1652   2.043       .  S
Fe1647     O1658   1.950       .  S
Fe1648     O1651   2.071       .  S
Fe1648     O1655   2.061       .  S
Fe1648     O1659   2.054       .  S
Fe1648     O1664   2.040       .  S
Fe1648     O1658   1.951       .  S
Fe1649     O1667   2.076       .  S
Fe1649     O1654   2.057       .  S
Fe1649     O1661   2.035       .  S
Fe1649     O1650   2.100       .  S
Fe1649     O1658   1.955       .  S
O1650      C1657   1.268       .  A
O1651      C1665   1.271       .  A
O1652      C1657   1.259       .  A
O1653      C1656   1.288       .  A
O1654      C1666   1.274       .  A
O1655      C1668   1.270       .  A
C1656      O1661   1.271       .  A
C1656      C1731   1.485       .  S
C1657      C1756   1.478       .  S
O1659      C1662   1.268       .  A
O1660      C1662   1.282       .  A
C1662      C1843   1.505       .  S
O1663      C1668   1.269       .  A
O1664      C1666   1.269       .  A
C1665      O1667   1.269       .  A
C1665      C1770   1.483       .  S
C1666      C1745   1.466       .  S
C1668      C1899   1.487       .  S
Fe1669     O1685   2.113       .  S
Fe1669     O1675   2.043       .  S
Fe1669     O1682   2.068       .  S
Fe1669     O1674   2.132       .  S
Fe1669     O1680   1.950       .  S
Fe1670     O1673   2.055       .  S
Fe1670     O1677   2.045       .  S
Fe1670     O1681   2.070       .  S
Fe1670     O1686   2.072       .  S
Fe1670     O1680   1.951       .  S
Fe1671     O1689   2.045       .  S
Fe1671     O1676   2.070       .  S
Fe1671     O1683   2.085       .  S
Fe1671     O1672   2.030       .  S
Fe1671     O1680   1.952       .  S
O1672      C1679   1.270       .  A
O1673      C1687   1.271       .  A
O1674      C1679   1.287       .  A
O1675      C1678   1.260       .  A
O1676      C1688   1.268       .  A
O1677      C1690   1.267       .  A
C1678      O1683   1.265       .  A
C1678      C1773   1.468       .  S
C1679      C1784   1.491       .  S
O1681      C1684   1.272       .  A
O1682      C1684   1.270       .  A
C1684      C1871   1.489       .  S
O1685      C1690   1.279       .  A
O1686      C1688   1.270       .  A
C1687      O1689   1.271       .  A
C1687      C1798   1.453       .  S
C1688      C1759   1.483       .  S
C1690      C1714   1.503       .  S
Fe1691     O1707   2.098       .  S
Fe1691     O1697   2.047       .  S
Fe1691     O1704   2.083       .  S
Fe1691     O1696   2.097       .  S
Fe1691     O1702   1.945       .  S
Fe1692     O1695   2.036       .  S
Fe1692     O1699   2.070       .  S
Fe1692     O1703   2.055       .  S
Fe1692     O1708   2.070       .  S
Fe1692     O1702   1.956       .  S
Fe1693     O1711   2.052       .  S
Fe1693     O1698   2.067       .  S
Fe1693     O1705   2.095       .  S
Fe1693     O1694   2.056       .  S
Fe1693     O1702   1.944       .  S
O1694      C1701   1.271       .  A
O1695      C1709   1.266       .  A
O1696      C1701   1.284       .  A
O1697      C1700   1.263       .  A
O1698      C1710   1.272       .  A
O1699      C1712   1.268       .  A
C1700      O1705   1.272       .  A
C1700      C1815   1.489       .  S
C1701      C1728   1.472       .  S
O1703      C1706   1.268       .  A
O1704      C1706   1.271       .  A
C1706      C1854   1.492       .  S
O1707      C1712   1.276       .  A
O1708      C1710   1.268       .  A
C1709      O1711   1.269       .  A
C1709      C1742   1.470       .  S
C1710      C1829   1.482       .  S
C1712      C1717   1.495       .  S
C1713      C1718   1.408       .  A
C1713      H1720   1.086       .  S
C1714      C1715   1.413       .  A
C1716      C1717   1.409       .  A
C1716      H1721   1.087       .  S
C1718      N1719   1.428       .  S
N1719      O1723   1.262       .  A
N1719      O1724   1.262       .  A
N1722      O1726   1.262       .  A
C1727      C1728   1.395       .  A
C1727      C1732   1.397       .  A
C1727      H1734   1.089       .  S
C1728      C1729   1.412       .  A
C1729      C1730   1.409       .  A
C1729      N1736   1.428       .  S
C1730      C1731   1.406       .  A
C1730      H1735   1.088       .  S
C1731      C1732   1.413       .  A
C1732      N1733   1.426       .  S
N1733      O1737   1.259       .  A
N1733      O1738   1.262       .  A
N1736      O1740   1.262       .  A
N1736      O1739   1.262       .  A
C1741      C1742   1.409       .  A
C1741      H1748   1.087       .  S
C1742      C1743   1.411       .  A
C1743      N1750   1.430       .  S
C1744      C1745   1.403       .  A
C1744      H1749   1.087       .  S
C1745      C1746   1.406       .  A
C1746      N1747   1.429       .  S
N1747      O1751   1.262       .  A
N1747      O1752   1.262       .  A
N1750      O1754   1.262       .  A
N1750      O1753   1.262       .  A
C1755      C1756   1.402       .  A
C1755      C1760   1.396       .  A
C1755      H1762   1.088       .  S
C1756      C1757   1.408       .  A
C1757      C1758   1.410       .  A
C1757      N1764   1.428       .  S
C1758      C1759   1.410       .  A
C1758      H1763   1.087       .  S
C1759      C1760   1.411       .  A
C1760      N1761   1.430       .  S
N1761      O1765   1.262       .  A
N1761      O1766   1.262       .  A
N1764      O1768   1.261       .  A
N1764      O1767   1.262       .  A
C1769      C1770   1.412       .  A
C1769      H1776   1.085       .  S
C1771      C1772   1.392       .  A
C1771      N1778   1.423   1_655  S
C1772      C1773   1.396       .  A
C1772      H1777   1.086       .  S
C1773      C1774   1.405       .  A
C1774      N1775   1.428       .  S
N1775      O1779   1.262       .  A
N1775      O1780   1.262       .  A
N1778      O1782   1.261       .  A
C1783      C1784   1.412       .  A
C1783      C1788   1.399       .  A
C1783      H1790   1.086       .  S
C1784      C1785   1.409       .  A
C1785      C1786   1.404       .  A
C1785      N1792   1.429       .  S
C1786      C1787   1.414       .  A
C1786      H1791   1.086       .  S
C1787      C1788   1.407       .  A
C1788      N1789   1.429       .  S
N1789      O1793   1.262       .  A
N1789      O1794   1.262       .  A
N1792      O1796   1.262       .  A
N1792      O1795   1.262       .  A
C1797      C1798   1.396       .  A
C1797      H1804   1.087       .  S
C1798      C1799   1.403   1_556  A
C1799      N1806   1.430       .  S
C1800      C1801   1.404       .  A
C1800      H1805   1.086       .  S
C1801      C1802   1.417       .  A
C1802      N1803   1.427       .  S
N1803      O1808   1.262       .  A
N1806      O1809   1.262       .  A
C1811      C1812   1.409       .  A
C1811      C1816   1.406       .  A
C1811      H1818   1.086       .  S
C1812      C1813   1.409       .  A
C1813      N1820   1.430       .  S
C1814      C1815   1.408       .  A
C1814      H1819   1.087       .  S
C1816      N1817   1.428       .  S
N1817      O1821   1.261       .  A
N1820      O1824   1.262       .  A
N1820      O1823   1.262       .  A
C1825      C1826   1.401       .  A
C1825      C1830   1.405       .  A
C1825      H1832   1.087       .  S
C1826      C1827   1.416       .  A
C1827      C1828   1.396       .  A
C1827      N1834   1.429       .  S
C1828      C1829   1.398       .  A
C1828      H1833   1.087       .  S
C1829      C1830   1.418       .  A
C1830      N1831   1.429       .  S
N1831      O1835   1.262       .  A
N1831      O1836   1.262       .  A
N1834      O1838   1.262       .  A
N1834      O1837   1.262       .  A
C1839      C1840   1.402       .  A
C1839      H1846   1.085       .  S
C1840      C1841   1.420       .  A
C1841      N1848   1.429       .  S
C1842      C1843   1.407       .  A
C1842      H1847   1.084       .  S
C1843      C1844   1.420   1_556  A
C1844      N1845   1.427       .  S
N1845      O1849   1.262       .  A
N1845      O1850   1.262       .  A
N1848      O1852   1.260       .  A
N1848      O1851   1.262       .  A
C1853      C1854   1.406       .  A
C1853      C1858   1.401       .  A
C1853      H1860   1.086       .  S
C1854      C1855   1.418       .  A
C1855      C1856   1.401       .  A
C1855      N1862   1.430       .  S
C1856      C1857   1.404       .  A
C1856      H1861   1.086       .  S
C1857      C1858   1.414       .  A
C1858      N1859   1.430       .  S
N1859      O1863   1.262       .  A
N1859      O1864   1.262       .  A
N1862      O1866   1.262       .  A
N1862      O1865   1.262       .  A
C1867      C1868   1.404       .  A
C1867      C1872   1.403       .  A
C1867      H1874   1.086       .  S
C1868      C1869   1.415       .  A
C1869      C1870   1.399       .  A
C1869      N1876   1.430       .  S
C1870      C1871   1.404       .  A
C1870      H1875   1.086       .  S
C1871      C1872   1.417       .  A
C1872      N1873   1.429       .  S
N1873      O1877   1.262       .  A
N1873      O1878   1.262       .  A
N1876      O1880   1.262       .  A
N1876      O1879   1.262       .  A
C1881      C1886   1.409       .  A
C1881      H1888   1.085       .  S
C1882      C1883   1.414   1_655  A
C1883      N1890   1.427       .  S
C1884      C1885   1.412       .  A
C1884      H1889   1.085       .  S
C1886      N1887   1.429       .  S
N1887      O1891   1.262       .  A
N1887      O1892   1.262       .  A
N1890      O1893   1.261       .  A
C1895      C1896   1.407       .  A
C1895      C1900   1.401   1_565  A
C1895      H1902   1.086       .  S
C1896      C1897   1.416       .  A
C1897      C1898   1.399   1_565  A
C1897      N1904   1.430       .  S
C1898      C1899   1.404       .  A
C1898      H1903   1.086       .  S
C1899      C1900   1.415       .  A
C1900      N1901   1.429       .  S
N1901      O1905   1.262       .  A
N1901      O1906   1.262       .  A
N1904      O1908   1.262       .  A
N1904      O1907   1.262       .  A
C1909      C1910   1.415       .  A
C1909      C1914   1.407       .  A
C1909      H1916   1.085       .  S
C1910      C1911   1.408       .  A
C1911      C1912   1.401       .  A
C1911      N1918   1.432       .  S
C1912      C1913   1.416       .  A
C1912      H1917   1.085       .  S
C1913      C1914   1.408       .  A
C1914      N1915   1.428       .  S
N1915      O1919   1.262       .  A
N1915      O1920   1.262       .  A
N1918      O1922   1.262       .  A
N1918      O1921   1.262       .  A
C1923      C1924   1.399       .  A
C1923      H1930   1.086       .  S
C1924      C1925   1.420       .  A
C1925      N1932   1.433       .  S
C1926      C1927   1.397       .  A
C1926      H1931   1.086       .  S
C1927      C1928   1.416       .  A
C1928      N1929   1.431       .  S
N1929      O1933   1.262       .  A
N1929      O1934   1.262       .  A
N1932      O1936   1.263   1_556  A
N1932      O1935   1.262       .  A
C1937      C1938   1.409       .  A
C1937      C1942   1.416       .  A
C1937      H1944   1.085       .  S
C1938      C1939   1.408       .  A
C1939      C1940   1.389       .  A
C1939      N1946   1.431       .  S
C1940      C1941   1.408       .  A
C1940      H1945   1.085       .  S
C1941      C1942   1.416       .  A
C1942      N1943   1.428       .  S
N1943      O1947   1.262       .  A
N1943      O1948   1.262       .  A
N1946      O1950   1.262       .  A
N1946      O1949   1.261       .  A
C1951      C1952   1.404       .  A
C1951      H1958   1.086       .  S
C1953      C1954   1.411   1_455  A
C1953      N1960   1.429       .  S
C1954      C1955   1.407       .  A
C1954      H1959   1.086       .  S
C1955      C1956   1.417   1_655  A
C1956      N1957   1.431       .  S
N1957      O1962   1.261       .  A
N1960      O1964   1.262       .  A
C1965      C1966   1.403       .  A
C1965      C1970   1.401   1_565  A
C1965      H1972   1.086       .  S
C1966      C1967   1.415       .  A
C1967      C1968   1.398   1_565  A
C1967      N1974   1.430       .  S
C1968      C1969   1.405       .  A
C1968      H1973   1.086       .  S
C1969      C1970   1.417       .  A
C1970      N1971   1.429       .  S
N1971      O1975   1.262       .  A
N1971      O1976   1.262       .  A
N1974      O1978   1.262       .  A
N1974      O1977   1.262       .  A
C1979      C1980   1.409       .  A
C1979      C1984   1.405       .  A
C1979      H1986   1.086       .  S
C1980      C1981   1.413       .  A
C1981      C1982   1.409       .  A
C1981      N1988   1.428       .  S
C1982      C1983   1.411       .  A
C1982      H1987   1.086       .  S
C1983      C1984   1.411       .  A
C1984      N1985   1.427       .  S
N1985      O1989   1.262       .  A
N1985      O1990   1.262       .  A
N1988      O1992   1.262       .  A
N1988      O1991   1.262       .  A
C1993      C1994   1.408       .  A
C1993      H2000   1.085       .  S
C1994      C1995   1.398       .  A
C1995      N2002   1.432       .  S
C1996      C1997   1.409       .  A
C1996      H2001   1.092       .  S
C1997      C1998   1.399       .  A
C1998      N1999   1.429       .  S
N1999      O2004   1.262       .  A
N2002      O2005   1.263       .  A
C2007      C2008   1.398       .  A
C2007      C2012   1.392   1_655  A
C2007      H2014   1.087       .  S
C2008      C2009   1.417       .  A
C2009      N2016   1.429       .  S
C2010      C2011   1.405       .  A
C2010      H2015   1.085       .  S
C2012      N2013   1.428       .  S
N2013      O2017   1.261       .  A
N2016      O2020   1.262       .  A
N2016      O2019   1.262       .  A
C2021      C2022   1.412       .  A
C2021      C2026   1.415       .  A
C2021      H2028   1.086       .  S
C2022      C2023   1.409       .  A
C2023      C2024   1.396       .  A
C2023      N2030   1.428       .  S
C2024      C2025   1.405       .  A
C2024      H2029   1.088       .  S
C2025      C2026   1.410       .  A
C2026      N2027   1.428       .  S
N2027      O2031   1.262       .  A
N2027      O2032   1.262       .  A
N2030      O2034   1.261       .  A
N2030      O2033   1.262       .  A
C2035      C2036   1.402       .  A
C2035      C2040   1.408       .  A
C2035      H2042   1.086       .  S
C2036      C2037   1.424       .  A
C2038      C2039   1.406       .  A
C2038      H2043   1.086       .  S
C2040      N2041   1.426       .  S
N2041      O2045   1.261       .  A
N2044      O2048   1.262   1_556  A
