geometry optimzed in LAMMPS
_audit_creation_date              2020-12-01 
_audit_creation_method            'lammps2cif' 
_symmetry_space_group_name_H-M    'P1' 
_symmetry_Int_Tables_number       1 
_symmetry_cell_setting            triclinic 
loop_ 
_symmetry_equiv_pos_as_xyz 
  x,y,z 
_cell_length_a                    27.27037669 
_cell_length_b                    42.24967405482108 
_cell_length_c                    27.104368695551916 
_cell_angle_alpha                 89.76733942063754 
_cell_angle_beta                  89.93796172527625 
_cell_angle_gamma                 89.9239016043288 
loop_ 
_atom_site_label 
_atom_site_type_symbol 
_atom_site_fract_x 
_atom_site_fract_y 
_atom_site_fract_z 
_atom_site_charge 
O1          O  0.85097306  0.72943349  0.02938468    -0.81800
C2          C  0.90954747  0.64707215  0.88969727     0.97600
O3          O  0.92688870  0.65727615  0.92995991    -0.70900
O4          O  0.93667697  0.70479433  0.99079690    -0.74500
Al5        Al  0.89458503  0.66909929  0.98866873     1.49000
C6          C  0.93898494  0.72943429  0.96480027     0.92900
O7          O  0.81876315  0.73820800  0.89449011    -0.80700
O8          O  0.74685510  0.67925751  0.94396344    -0.74200
Al9        Al  0.83654634  0.72887450  0.96052656     1.90100
O10         O  0.80337328  0.69215587  0.86265844    -0.73300
O11         O  0.79918483  0.62813696  0.95893515    -0.73200
O12         O  0.86344876  0.64530071  0.88203817    -0.78800
O13         O  0.86949933  0.62825262  0.99550908    -0.77000
O14         O  0.84559374  0.68701493  0.95437115    -1.13200
O15         O  0.86439162  0.67978260  0.05056037    -0.72400
C16         C  0.85286398  0.70788960  0.06184369     0.98400
C17         C  0.80538825  0.72163277  0.85881587     0.94800
Al18       Al  0.80699071  0.66337588  0.91557440     1.55600
O19         O  0.90179511  0.73954597  0.94245692    -0.77000
C20         C  0.83088419  0.61432773  0.98431236     0.98900
C21         C  0.73835232  0.70379992  0.96938635     0.93800
O22         O  0.77123839  0.72378431  0.97861811    -0.82300
O23         O  0.83806775  0.28124550  0.98686534    -0.81800
C24         C  0.90220934  0.36396786  0.12296174     0.97600
O25         O  0.91903929  0.34998564  0.08531926    -0.70900
O26         O  0.92456714  0.30207970  0.02362934    -0.74500
Al27       Al  0.88589733  0.33989361  0.02663778     1.49000
C28         C  0.92421586  0.27732724  0.04960439     0.92900
O29         O  0.80363062  0.27538174  0.12160341    -0.80700
O30         O  0.73606437  0.33280830  0.07522334    -0.74200
Al31       Al  0.82269462  0.28271335  0.05525692     1.90100
O32         O  0.79871489  0.32248497  0.15384046    -0.73300
O33         O  0.79005481  0.38176565  0.05007324    -0.73200
O34         O  0.85629732  0.36894846  0.12841374    -0.78800
O35         O  0.86424426  0.38224848  0.02140057    -0.77000
O36         O  0.83527367  0.32400323  0.06068454    -1.13200
O37         O  0.85462232  0.33045680  0.96481318    -0.72400
C38         C  0.84229279  0.30239571  0.95393065     0.98400
C39         C  0.79669059  0.29297642  0.15808783     0.94800
Al40       Al  0.79854028  0.34932333  0.09848831     1.55600
O41         O  0.88679179  0.26989913  0.07409604    -0.77000
C42         C  0.82437472  0.39604190  0.02892249     0.98900
C43         C  0.72583123  0.30929560  0.04814245     0.93800
O44         O  0.75812166  0.28963024  0.03577370    -0.82300
O45         O  0.30342854  0.21876337  0.02236789    -0.81800
C46         C  0.38963917  0.14929997  0.87031525     0.97600
O47         O  0.40044769  0.14605483  0.91560378    -0.70900
O48         O  0.42423981  0.19853158  0.95797346    -0.74500
Al49       Al  0.37749472  0.16729299  0.97397064     1.49000
C50         C  0.42169384  0.22791174  0.96428958     0.92900
O51         O  0.32368923  0.24030743  0.88855909    -0.80700
O52         O  0.23472205  0.17129959  0.93808800    -0.74200
Al53       Al  0.31489798  0.22737908  0.95564876     1.90100
O54         O  0.27657505  0.20297603  0.85860891    -0.73300
O55         O  0.30083683  0.12449833  0.92488185    -0.73200
O56         O  0.34851165  0.16039529  0.85690317    -0.78800
O57         O  0.33795201  0.13228841  0.99489344    -0.77000
O58         O  0.32893434  0.18703594  0.94273888    -1.13200
O59         O  0.36384762  0.18560739  0.03775528    -0.72400
C60         C  0.32918449  0.20321680  0.05223519     0.98400
C61         C  0.29667029  0.22979430  0.85456601     0.94800
Al62       Al  0.29294948  0.16644245  0.89827003     1.55600
O63         O  0.38073384  0.24138149  0.96871993    -0.77000
C64         C  0.31547032  0.11420184  0.96592857     0.98900
C65         C  0.21992322  0.19804047  0.95324985     0.93800
O66         O  0.24602208  0.22250755  0.94765179    -0.82300
O67         O  0.32589605  0.78306513  0.99736150    -0.81800
C68         C  0.40297776  0.86549008  0.13518596     0.97600
O69         O  0.41409584  0.86615899  0.08934574    -0.70900
O70         O  0.43637281  0.81405478  0.04366221    -0.74500
Al71       Al  0.38697968  0.84440050  0.03206808     1.49000
C72         C  0.43675428  0.78508179  0.05394007     0.92900
O73         O  0.33592551  0.77607467  0.13519597    -0.80700
O74         O  0.24722327  0.83937341  0.07162217    -0.74200
Al75       Al  0.33159765  0.78317165  0.06587635     1.90100
O76         O  0.28811357  0.81507301  0.15551515    -0.73300
O77         O  0.31012054  0.88851763  0.08053366    -0.73200
O78         O  0.36077556  0.85679313  0.14991193    -0.78800
O79         O  0.34686974  0.87936745  0.01144334    -0.77000
O80         O  0.34177097  0.82506213  0.06906650    -1.13200
O81         O  0.36642085  0.82470907  0.97077165    -0.72400
C82         C  0.34090937  0.80022196  0.96259747     0.98400
C83         C  0.30747209  0.78885186  0.16555154     0.94800
Al84       Al  0.30489233  0.84790312  0.11048234     1.55600
O85         O  0.39782956  0.77044675  0.06265255    -0.77000
C86         C  0.32357059  0.89784706  0.03889072     0.98900
C87         C  0.23453861  0.81141587  0.05978828     0.93800
O88         O  0.26248010  0.78788735  0.06700404    -0.82300
O89         O  0.21699537  0.28699493  0.51814939    -0.81800
C90         C  0.13817347  0.36142119  0.36781874     0.97600
O91         O  0.12543004  0.36363105  0.41297245    -0.70900
O92         O  0.09958260  0.31185862  0.45838049    -0.74500
Al93       Al  0.14814892  0.34251237  0.47275647     1.49000
C94         C  0.10164617  0.28218708  0.45923717     0.92900
O95         O  0.20124814  0.27169925  0.38254443    -0.80700
O96         O  0.29090850  0.33738460  0.44050447    -0.74200
Al97       Al  0.20813504  0.28164890  0.45082717     1.90100
O98         O  0.25277674  0.30828960  0.35865034    -0.73300
O99         O  0.22669236  0.38496628  0.42439699    -0.73200
O100        O  0.18014645  0.35085819  0.35556514    -0.78800
O101        O  0.18806115  0.37711635  0.49342325    -0.77000
O102        O  0.19620018  0.32260854  0.44096329    -1.13200
O103        O  0.16348481  0.32406900  0.53704550    -0.72400
C104        C  0.19575709  0.30389934  0.54957069     0.98400
C105        C  0.23189225  0.28214689  0.35173486     0.94800
Al106      Al  0.23438941  0.34367342  0.39840901     1.55600
O107        O  0.14219529  0.26816187  0.45974397    -0.77000
C108        C  0.21216722  0.39487674  0.46528920     0.98900
C109        C  0.30452007  0.30991614  0.45423818     0.93800
O110        O  0.27770677  0.28599326  0.44661578    -0.82300
O111        O  0.22362650  0.71681730  0.49205843    -0.81800
C112        C  0.14468514  0.64188029  0.64134800     0.97600
O113        O  0.13177330  0.64025219  0.59630977    -0.70900
O114        O  0.10809121  0.69092803  0.54809164    -0.74500
Al115      Al  0.15679128  0.66014898  0.53676326     1.49000
C116        C  0.10925412  0.72056067  0.54903272     0.92900
O117        O  0.20890808  0.73240276  0.62787134    -0.80700
O118        O  0.30015587  0.66704929  0.57347270    -0.74200
Al119      Al  0.21541777  0.72171811  0.55982550     1.90100
O120        O  0.25569834  0.69401112  0.65484842    -0.73300
O121        O  0.23859743  0.61798993  0.58419415    -0.73200
O122        O  0.18750707  0.65041800  0.65351152    -0.78800
O123        O  0.19564903  0.62519972  0.51786833    -0.77000
O124        O  0.20423279  0.68033645  0.56944783    -1.13200
O125        O  0.17431217  0.67750052  0.47288933    -0.72400
C126        C  0.20337230  0.69950859  0.46052439     0.98400
C127        C  0.23496157  0.72031948  0.66135142     0.94800
Al128      Al  0.24217154  0.65917184  0.61255239     1.55600
O129        O  0.14931092  0.73497976  0.55111278    -0.77000
C130        C  0.22244482  0.60795526  0.54398665     0.98900
C131        C  0.31284487  0.69454548  0.55949530     0.93800
O132        O  0.28438930  0.71791360  0.56461013    -0.82300
O133        O  0.68439758  0.23125270  0.48777646    -0.81800
C134        C  0.62454982  0.14675041  0.62470798     0.97600
O135        O  0.60828770  0.15872015  0.58514300    -0.70900
O136        O  0.60064828  0.20796633  0.52760906    -0.74500
Al137      Al  0.64108134  0.17082170  0.52730481     1.49000
C138        C  0.60017829  0.23215568  0.55481108     0.92900
O139        O  0.72417367  0.23691814  0.61995883    -0.80700
O140        O  0.78938712  0.17908811  0.57568268    -0.74200
Al141      Al  0.70249061  0.22883209  0.55522852     1.90100
O142        O  0.72825541  0.19066543  0.65517631    -0.73300
O143        O  0.73614296  0.12847244  0.55579000    -0.73200
O144        O  0.67039334  0.14375483  0.63255764    -0.78800
O145        O  0.66538822  0.12904347  0.51948315    -0.77000
O146        O  0.69074442  0.18726400  0.56179311    -1.13200
O147        O  0.67144711  0.18201923  0.46550315    -0.72400
C148        C  0.68263366  0.21031617  0.45485760     0.98400
C149        C  0.73141282  0.22018090  0.65737514     0.94800
Al150      Al  0.72763851  0.16269506  0.60112728     1.55600
O151        O  0.63857010  0.24100750  0.57651080    -0.77000
C152        C  0.70427541  0.11485488  0.53023614     0.98900
C153        C  0.79903520  0.20192162  0.54656319     0.93800
O154        O  0.76659281  0.22148006  0.53344375    -0.82300
O155        O  0.69037776  0.77944343  0.53052723    -0.81800
C156        C  0.63377780  0.86048761  0.38690217     0.97600
O157        O  0.61576029  0.84815133  0.42554632    -0.70900
O158        O  0.60725425  0.80070784  0.48758121    -0.74500
Al159      Al  0.64626052  0.83826867  0.48596532     1.49000
C160        C  0.60866072  0.77563715  0.46263578     0.92900
O161        O  0.73398947  0.77129778  0.39876688    -0.80700
O162        O  0.79733481  0.83038857  0.44571985    -0.74200
Al163      Al  0.71024971  0.78028095  0.46319751     1.90100
O164        O  0.74001983  0.81773309  0.36432337    -0.73300
O165        O  0.74187572  0.88100947  0.46205395    -0.73200
O166        O  0.67997874  0.86439189  0.38201246    -0.78800
O167        O  0.66791190  0.88075139  0.49105785    -0.77000
O168        O  0.69808866  0.82170014  0.45489137    -1.13200
O169        O  0.67447698  0.82902408  0.54985056    -0.72400
C170        C  0.68556512  0.80094131  0.56248990     0.98400
C171        C  0.74307554  0.78821010  0.36183895     0.94800
Al172      Al  0.73636203  0.84618909  0.41706021     1.55600
O173        O  0.64738737  0.76738888  0.44097480    -0.77000
C174        C  0.70697272  0.89526400  0.48232819     0.98900
C175        C  0.80624031  0.80711787  0.47426047     0.93800
O176        O  0.77340117  0.78766840  0.48619867    -0.82300
C177        C  0.68749975  0.03483844  0.50066617     0.29800
C178        C  0.65916258  0.00769923  0.49249888    -0.36500
C179        C  0.68414029  0.97869193  0.49388805     0.15800
C180        C  0.73404947  0.97627532  0.50126369     0.21600
C181        C  0.76252312  0.00359266  0.50996048    -0.34600
C182        C  0.73717340  0.03277804  0.50981058     0.15700
O183        O  0.67062021  0.06401921  0.50393199    -0.26700
C184        C  0.70964431  0.08123554  0.51589769     0.05500
C185        C  0.75224070  0.06302870  0.52008512    -0.31500
O186        O  0.74969544  0.94650061  0.49920253    -0.23400
C187        C  0.70885014  0.92977894  0.49167663    -0.03400
C188        C  0.66720094  0.94869597  0.48833253    -0.17800
H189        H  0.61995415  0.00906151  0.48648708     0.20200
H190        H  0.80152087  0.00216837  0.51707274     0.18600
H191        H  0.78841048  0.07073016  0.53117964     0.18500
H192        H  0.62989324  0.94138154  0.48087644     0.14400
C193        C  0.43415022  0.70260437  0.51648027     0.29800
C194        C  0.48534865  0.69826073  0.51487082    -0.36500
C195        C  0.51212916  0.72141605  0.48870033     0.15800
C196        C  0.48991509  0.74707691  0.46615315     0.21600
C197        C  0.43914741  0.75101591  0.46686574    -0.34600
C198        C  0.41271404  0.72806510  0.49273644     0.15700
O199        O  0.40193827  0.68586648  0.54245025    -0.26700
C200        C  0.35981563  0.70119181  0.53491704     0.05500
C201        C  0.36462518  0.72732934  0.50410707    -0.31500
O202        O  0.52150538  0.76828862  0.45033924    -0.23400
C203        C  0.56480049  0.75591196  0.46154116    -0.03400
C204        C  0.56143320  0.72669266  0.48527552    -0.17800
H205        H  0.50323814  0.67919799  0.53470808     0.20200
H206        H  0.42163599  0.77166002  0.45086269     0.18600
H207        H  0.33676850  0.74433950  0.49349382     0.18500
H208        H  0.59064982  0.71325824  0.50247504     0.14400
C209        C  0.90956835  0.77212501  0.52654907     0.29800
C210        C  0.93401976  0.74694094  0.54940064    -0.36500
C211        C  0.98510982  0.74766273  0.54698451     0.15800
C212        C  0.01082798  0.77182091  0.52441404     0.21600
C213        C  0.98614069  0.79731533  0.50152579    -0.34600
C214        C  0.93451199  0.79633107  0.50322653     0.15700
O215        O  0.86195346  0.77419721  0.52092121    -0.26700
C216        C  0.85547338  0.79998369  0.49346034     0.05500
C217        C  0.89939380  0.81501144  0.48130818    -0.31500
O218        O  0.05860158  0.76634304  0.52402118    -0.23400
C219        C  0.06296345  0.73825191  0.54627026    -0.03400
C220        C  0.01844922  0.72558895  0.56118237    -0.17800
H221        H  0.91440348  0.72734586  0.56598709     0.20200
H222        H  0.00567159  0.81579465  0.48205042     0.18600
H223        H  0.90476538  0.83539406  0.45766130     0.18500
H224        H  0.01157109  0.70278396  0.57818581     0.14400
C225        C  0.40144145  0.27733480  0.52125603     0.29800
C226        C  0.42544121  0.25224245  0.54483546    -0.36500
C227        C  0.47557786  0.25621252  0.55308564     0.15800
C228        C  0.50068809  0.28328034  0.53972258     0.21600
C229        C  0.47606846  0.30901303  0.51737566    -0.34600
C230        C  0.42559261  0.30483515  0.50835774     0.15700
O231        O  0.35632390  0.27647811  0.50463300    -0.26700
C232        C  0.35062654  0.30378402  0.48081395     0.05500
C233        C  0.39237788  0.32277417  0.48225504    -0.31500
O234        O  0.54877859  0.27956247  0.54333270    -0.23400
C235        C  0.55405162  0.24983542  0.55924530    -0.03400
C236        C  0.50973665  0.23440290  0.56623872    -0.17800
H237        H  0.40698472  0.23012182  0.55278317     0.20200
H238        H  0.49556505  0.32977375  0.50456224     0.18600
H239        H  0.39828916  0.34536321  0.46428727     0.18500
H240        H  0.50390395  0.20956615  0.57432031     0.14400
C241        C  0.00404950  0.23239764  0.49106748     0.29800
C242        C  0.97918974  0.21015458  0.52086049    -0.36500
C243        C  0.92766335  0.21041006  0.51760318     0.15800
C244        C  0.90292424  0.23088112  0.48660268     0.21600
C245        C  0.92761809  0.25272166  0.45662224    -0.34600
C246        C  0.97870242  0.25285086  0.46053555     0.15700
O247        O  0.05144470  0.23878325  0.49218435    -0.26700
C248        C  0.05610554  0.26380833  0.46244581     0.05500
C249        C  0.01207299  0.27352281  0.44165774    -0.31500
O250        O  0.85517619  0.22930205  0.49198831    -0.23400
C251        C  0.84853016  0.20749182  0.52679790    -0.03400
C252        C  0.89239146  0.19464872  0.54421069    -0.17800
H253        H  0.99844677  0.19496145  0.54651749     0.20200
H254        H  0.90814834  0.26962125  0.43389999     0.18600
H255        H  0.00529068  0.29397769  0.41851377     0.18500
H256        H  0.89755788  0.17775006  0.57384135     0.14400
C257        C  0.22618470  0.47695176  0.46954532     0.29800
C258        C  0.22271180  0.50795939  0.45125367    -0.36500
C259        C  0.23022361  0.53215037  0.48561309     0.15800
C260        C  0.24150961  0.52627952  0.53445634     0.21600
C261        C  0.24506215  0.49519496  0.55273151    -0.34600
C262        C  0.23623271  0.47096403  0.51862691     0.15700
O263        O  0.21760426  0.45092685  0.44448127    -0.26700
C264        C  0.22133283  0.42799303  0.47801922     0.05500
C265        C  0.23266369  0.43897221  0.52489416    -0.31500
O266        O  0.24323667  0.55241705  0.56088879    -0.23400
C267        C  0.23245242  0.57524557  0.52866526    -0.03400
C268        C  0.22416419  0.56401057  0.48125588    -0.17800
H269        H  0.21275571  0.51287989  0.41330731     0.20200
H270        H  0.25194297  0.49028539  0.59134621     0.18600
H271        H  0.23707904  0.42540557  0.55856235     0.18500
H272        H  0.21246823  0.57722486  0.44902288     0.14400
C273        C  0.56844315  0.87640208  0.27691144     0.29800
C274        C  0.56038975  0.87811129  0.22552458    -0.36500
C275        C  0.51098093  0.87816648  0.20996310     0.15800
C276        C  0.47232140  0.87677301  0.24280396     0.21600
C277        C  0.48032287  0.87559693  0.29385965    -0.34600
C278        C  0.52938301  0.87533243  0.30926156     0.15700
O279        O  0.61124104  0.87293383  0.29970063    -0.26700
C280        C  0.59909352  0.86961324  0.34720104     0.05500
C281        C  0.54869513  0.87105872  0.35496777    -0.31500
O282        O  0.42947067  0.87378697  0.22072515    -0.23400
C283        C  0.44026982  0.87346605  0.17283044    -0.03400
C284        C  0.49052289  0.87631831  0.16389241    -0.17800
H285        H  0.59046434  0.87787559  0.19943138     0.20200
H286        H  0.45028185  0.87340139  0.31980635     0.18600
H287        H  0.52891694  0.86758559  0.38922999     0.18500
H288        H  0.50941391  0.87488135  0.12882926     0.14400
C289        C  0.29405807  0.76112534  0.85976220     0.29800
C290        C  0.27101355  0.73583960  0.83615061    -0.36500
C291        C  0.26037845  0.74019713  0.78621940     0.15800
C292        C  0.27135206  0.76764275  0.76076791     0.21600
C293        C  0.29471306  0.79317470  0.78463161    -0.34600
C294        C  0.30576772  0.78871645  0.83504793     0.15700
O295        O  0.30635293  0.76178998  0.90652548    -0.26700
C296        C  0.32664496  0.79008123  0.91266515     0.05500
C297        C  0.32764383  0.80801673  0.86930522    -0.31500
O298        O  0.26056163  0.76543681  0.71322800    -0.23400
C299        C  0.24258668  0.73621146  0.70879718    -0.03400
C300        C  0.24171111  0.71959090  0.75298847    -0.17800
H301        H  0.26246295  0.71401697  0.85537847     0.20200
H302        H  0.30429374  0.81470336  0.76514280     0.18600
H303        H  0.34087058  0.83194508  0.86423668     0.18500
H304        H  0.23149272  0.69511491  0.75904601     0.14400
C305        C  0.22802515  0.74117774  0.35372443     0.29800
C306        C  0.23530859  0.76937866  0.32796863    -0.36500
C307        C  0.25990523  0.76683773  0.28317948     0.15800
C308        C  0.27656373  0.73850251  0.26439896     0.21600
C309        C  0.26917772  0.70986126  0.29050498    -0.34600
C310        C  0.24404239  0.71239620  0.33592356     0.15700
O311        O  0.20876238  0.73919223  0.39781374    -0.26700
C312        C  0.21141026  0.70873368  0.40913507     0.05500
C313        C  0.23301887  0.69054571  0.37203149    -0.31500
O314        O  0.29782382  0.74221679  0.22076235    -0.23400
C315        C  0.29430653  0.77329911  0.21225922    -0.03400
C316        C  0.27121145  0.78960788  0.24996412    -0.17800
H317        H  0.22308605  0.79189725  0.34228576     0.20200
H318        H  0.28223262  0.68740841  0.27662494     0.18600
H319        H  0.24274655  0.66570888  0.37319667     0.18500
H320        H  0.26258495  0.81458290  0.25183876     0.14400
C321        C  0.30393555  0.98001433  0.03261642     0.29800
C322        C  0.30011037  0.01069004  0.05226787    -0.36500
C323        C  0.30298375  0.03584995  0.01834039     0.15800
C324        C  0.30781623  0.03109995  0.96823814     0.21600
C325        C  0.31182312  0.00039470  0.94857258    -0.34600
C326        C  0.31027744  0.97523091  0.98268658     0.15700
O327        O  0.30575877  0.95337700  0.05817045    -0.26700
C328        C  0.31404725  0.93111241  0.02446860     0.05500
C329        C  0.31721277  0.94335098  0.97674264    -0.31500
O330        O  0.31107668  0.05798144  0.94337088    -0.23400
C331        C  0.30901491  0.08030266  0.97795506    -0.03400
C332        C  0.30430248  0.06788661  0.02537616    -0.17800
H333        H  0.29691779  0.01468579  0.09158508     0.20200
H334        H  0.31748098  0.99645785  0.90951035     0.18600
H335        H  0.32512976  0.93075186  0.94294161     0.18500
H336        H  0.30294990  0.08059604  0.05995440     0.14400
C337        C  0.27391634  0.21611518  0.16561440     0.29800
C338        C  0.23391044  0.22243281  0.19653199    -0.36500
C339        C  0.24497855  0.23694008  0.24143002     0.15800
C340        C  0.29221302  0.24509916  0.25452776     0.21600
C341        C  0.33244837  0.23788105  0.22427071    -0.34600
C342        C  0.32142402  0.22292685  0.17961338     0.15700
O343        O  0.27115172  0.20646580  0.11970794    -0.26700
C344        C  0.31745374  0.20626909  0.10444526     0.05500
C345        C  0.35056937  0.21601387  0.14016157    -0.31500
O346        O  0.29357534  0.26161504  0.29549846    -0.23400
C347        C  0.24683677  0.26340604  0.30926597    -0.03400
C348        C  0.21486165  0.24830291  0.27738644    -0.17800
H349        H  0.19653193  0.21780650  0.18525223     0.20200
H350        H  0.36945062  0.24480295  0.23381784     0.18600
H351        H  0.38945823  0.22042594  0.13596503     0.18500
H352        H  0.17520690  0.24756949  0.27892249     0.14400
C353        C  0.25745808  0.28311109  0.65741758     0.29800
C354        C  0.29574767  0.26871629  0.68367808    -0.36500
C355        C  0.28776245  0.26412580  0.73417399     0.15800
C356        C  0.24477820  0.27295330  0.75729124     0.21600
C357        C  0.20662255  0.28795875  0.73100202    -0.34600
C358        C  0.21473816  0.29272964  0.68024511     0.15700
O359        O  0.25600202  0.28692887  0.60939342    -0.26700
C360        C  0.21210228  0.29949178  0.60075589     0.05500
C361        C  0.18466429  0.30401471  0.64353781    -0.31500
O362        O  0.24331105  0.26341732  0.80373666    -0.23400
C363        C  0.28624449  0.24891739  0.81050853    -0.03400
C364        C  0.31531153  0.24854809  0.76848057    -0.17800
H365        H  0.32872218  0.26045850  0.66549734     0.20200
H366        H  0.17228588  0.29426651  0.74848663     0.18600
H367        H  0.14727483  0.31239240  0.64673647     0.18500
H368        H  0.35004217  0.23659206  0.76311070     0.14400
C369        C  0.55553362  0.13203964  0.73185830     0.29800
C370        C  0.54630060  0.13094866  0.78291118    -0.36500
C371        C  0.49679441  0.13314107  0.79722420     0.15800
C372        C  0.45903425  0.13620079  0.76360786     0.21600
C373        C  0.46815888  0.13664654  0.71279690    -0.34600
C374        C  0.51742183  0.13451774  0.69856525     0.15700
O375        O  0.59901695  0.13401946  0.71025790    -0.26700
C376        C  0.58832901  0.13769199  0.66259375     0.05500
C377        C  0.53816426  0.13792343  0.65339482    -0.31500
O378        O  0.41617973  0.14111998  0.78481341    -0.23400
C379        C  0.42630250  0.14090809  0.83275114    -0.03400
C380        C  0.47583736  0.13584671  0.84271894    -0.17800
H381        H  0.57575284  0.13007483  0.80966466     0.20200
H382        H  0.43899518  0.14007922  0.68618450     0.18600
H383        H  0.51961434  0.14243290  0.61874295     0.18500
H384        H  0.49410584  0.13619045  0.87816827     0.14400
C385        C  0.09846629  0.20344384  0.99581325     0.29800
C386        C  0.04710479  0.20063016  0.99328347    -0.36500
C387        C  0.01994517  0.22277206  0.02085758     0.15800
C388        C  0.04193648  0.24598219  0.04895118     0.21600
C389        C  0.09288567  0.24816978  0.05264387    -0.34600
C390        C  0.11978457  0.22632048  0.02503771     0.15700
O391        O  0.13103664  0.18848284  0.96794095    -0.26700
C392        C  0.17333890  0.20224694  0.97972827     0.05500
C393        C  0.16834920  0.22557844  0.01531739    -0.31500
O394        O  0.01050407  0.26707841  0.06555936    -0.23400
C395        C  0.96751834  0.25695738  0.04914480    -0.03400
C396        C  0.97096909  0.22951290  0.02110083    -0.17800
H397        H  0.02957275  0.18384444  0.96896843     0.20200
H398        H  0.11041998  0.26712845  0.07279353     0.18600
H399        H  0.19625010  0.24143642  0.02922975     0.18500
H400        H  0.94233557  0.21817961  0.99994848     0.14400
C401        C  0.52007893  0.27739633  0.99603456     0.29800
C402        C  0.54510207  0.30092713  0.02295792    -0.36500
C403        C  0.59677123  0.29978606  0.02097343     0.15800
C404        C  0.62141774  0.27711818  0.99406809     0.21600
C405        C  0.59667206  0.25394154  0.96721339    -0.34600
C406        C  0.54558371  0.25496613  0.96946929     0.15700
O407        O  0.47221607  0.27210065  0.99564619    -0.26700
C408        C  0.46759957  0.24592892  0.96861198     0.05500
C409        C  0.51206003  0.23439658  0.95140152    -0.31500
O410        O  0.66911250  0.27870098  0.99938541    -0.23400
C411        C  0.67601717  0.30271773  0.03006481    -0.03400
C412        C  0.63225410  0.31701957  0.04480866    -0.17800
H413        H  0.52578098  0.31809354  0.04522276     0.20200
H414        H  0.61604926  0.23559116  0.94740893     0.18600
H415        H  0.51885790  0.21291511  0.93085536     0.18500
H416        H  0.62726639  0.33611775  0.07081157     0.14400
C417        C  0.03546829  0.37885238  0.29363268     0.29800
C418        C  0.98512154  0.38223510  0.28297955    -0.36500
C419        C  0.97190443  0.38073722  0.23281243     0.15800
C420        C  0.00610932  0.37637210  0.19588881     0.21600
C421        C  0.05629859  0.37368651  0.20640628    -0.34600
C422        C  0.06938165  0.37491890  0.25634574     0.15700
O423        O  0.05542716  0.37606985  0.33794552    -0.26700
C424        C  0.10270364  0.37029048  0.32882116     0.05500
C425        C  0.11337769  0.36951035  0.27863487    -0.31500
O426        O  0.98581146  0.37177979  0.15244763    -0.23400
C427        C  0.93783511  0.37341904  0.16107598    -0.03400
C428        C  0.92688447  0.37928271  0.21046991    -0.17800
H429        H  0.95791173  0.38414034  0.31193355     0.20200
H430        H  0.08304534  0.36907662  0.17776681     0.18600
H431        H  0.14797556  0.36383613  0.26113230     0.18500
H432        H  0.89116689  0.37965016  0.22792980     0.14400
C433        C  0.75886352  0.24629626  0.25806782     0.29800
C434        C  0.74424390  0.21857246  0.28304415    -0.36500
C435        C  0.72428667  0.22291478  0.33040458     0.15800
C436        C  0.71937193  0.25251285  0.35119699     0.21600
C437        C  0.73403262  0.28001073  0.32651451    -0.34600
C438        C  0.75395136  0.27566068  0.27962413     0.15700
O439        O  0.77656696  0.24818898  0.21279527    -0.26700
C440        C  0.78320447  0.27912812  0.20582808     0.05500
C441        C  0.77000877  0.29728041  0.24629058    -0.31500
O442        O  0.70193084  0.25141634  0.39618557    -0.23400
C443        C  0.69522809  0.22077839  0.40489756    -0.03400
C444        C  0.70827658  0.20167948  0.36521310    -0.17800
H445        H  0.74805997  0.19538362  0.26672336     0.20200
H446        H  0.73035447  0.30319538  0.34290298     0.18600
H447        H  0.77007775  0.32279544  0.24971891     0.18500
H448        H  0.70844689  0.17610877  0.36331673     0.14400
C449        C  0.80210370  0.29002173  0.83273336     0.29800
C450        C  0.77760193  0.29635760  0.78805378    -0.36500
C451        C  0.76769109  0.26987459  0.75825502     0.15800
C452        C  0.78069660  0.23945169  0.77181025     0.21600
C453        C  0.80542853  0.23324440  0.81577350    -0.34600
C454        C  0.81555148  0.25949009  0.84506234     0.15700
O455        O  0.81238916  0.31045260  0.86824457    -0.26700
C456        C  0.83280698  0.29240986  0.90311348     0.05500
C457        C  0.83590796  0.26073230  0.89026867    -0.31500
O458        O  0.76799902  0.21814064  0.73907529    -0.23400
C459        C  0.74672448  0.23493670  0.70363020    -0.03400
C460        C  0.74550012  0.26731891  0.71332746    -0.17800
H461        H  0.76643243  0.32003896  0.77763726     0.20200
H462        H  0.81559788  0.20946112  0.82672202     0.18600
H463        H  0.84854033  0.24103916  0.91260540     0.18500
H464        H  0.73120545  0.28614145  0.69025573     0.14400
C465        C  0.01243861  0.63473494  0.81476783     0.29800
C466        C  0.06273691  0.63494178  0.80374300    -0.36500
C467        C  0.07516623  0.63368151  0.75355345     0.15800
C468        C  0.04051205  0.63232135  0.71655753     0.21600
C469        C  0.99008352  0.63192978  0.72765161    -0.34600
C470        C  0.97760059  0.63309774  0.77797054     0.15700
O471        O  0.99285422  0.63830177  0.85888437    -0.26700
C472        C  0.94474332  0.63868929  0.85057279     0.05500
C473        C  0.93303943  0.63538149  0.80085838    -0.31500
O474        O  0.06036580  0.63349554  0.67203943    -0.23400
C475        C  0.10838904  0.63550383  0.68064906    -0.03400
C476        C  0.11959274  0.63571695  0.73075585    -0.17800
H477        H  0.09029276  0.63705200  0.83230255     0.20200
H478        H  0.96247322  0.63175771  0.69898078     0.18600
H479        H  0.89719688  0.63661735  0.78383430     0.18500
H480        H  0.15517446  0.63861388  0.74786533     0.14400
C481        C  0.13727380  0.77554044  0.99947055     0.29800
C482        C  0.11380041  0.74945825  0.97868099    -0.36500
C483        C  0.06358298  0.75277478  0.97064069     0.15800
C484        C  0.03802716  0.78010436  0.98157996     0.21600
C485        C  0.06195772  0.80660719  0.00171942    -0.34600
C486        C  0.11251138  0.80314012  0.01047230     0.15700
O487        O  0.18278700  0.77587485  0.01459446    -0.26700
C488        C  0.18800632  0.80399380  0.03561038     0.05500
C489        C  0.14561062  0.82237235  0.03387613    -0.31500
O490        O  0.99018557  0.77638094  0.97681546    -0.23400
C491        C  0.98554721  0.74637262  0.96277062    -0.03400
C492        C  0.02993726  0.73063001  0.95827284    -0.17800
H493        H  0.13289008  0.72738148  0.97207652     0.20200
H494        H  0.04208039  0.82764283  0.01250423     0.18600
H495        H  0.13941577  0.84549011  0.04972406     0.18500
H496        H  0.03607314  0.70570854  0.95125790     0.14400
C497        C  0.63658544  0.73870358  0.02344006     0.29800
C498        C  0.61222006  0.76390956  0.04575438    -0.36500
C499        C  0.56151418  0.76101865  0.04939072     0.15800
C500        C  0.53619298  0.73482496  0.03298148     0.21600
C501        C  0.56090222  0.70918519  0.01092045    -0.34600
C502        C  0.61207296  0.71235303  0.00643340     0.15700
O503        O  0.68340894  0.73815567  0.01317396    -0.26700
C504        C  0.68976488  0.71121034  0.98908441     0.05500
C505        C  0.64667248  0.69387109  0.98363638    -0.31500
O506        O  0.48825267  0.73890405  0.03564712    -0.23400
C507        C  0.48344314  0.76809694  0.05350349    -0.03400
C508        C  0.52774256  0.78283216  0.06296257    -0.17800
H509        H  0.63132265  0.78507477  0.05718894     0.20200
H510        H  0.54142938  0.68906069  0.99610110     0.18600
H511        H  0.64141639  0.67171120  0.96448172     0.18500
H512        H  0.53402638  0.80695027  0.07470348     0.14400
C513        C  0.79937367  0.53453872  0.00237944     0.29800
C514        C  0.76993862  0.50715282  0.00280531    -0.36500
C515        C  0.79497128  0.47818622  0.00857907     0.15800
C516        C  0.84539442  0.47652728  0.01250374     0.21600
C517        C  0.87444001  0.50369185  0.01314996    -0.34600
C518        C  0.84949235  0.53239577  0.00864385     0.15700
O519        O  0.78476624  0.56406247  0.99469859    -0.26700
C520        C  0.82617421  0.58072838  0.99740918     0.05500
C521        C  0.86724260  0.56220238  0.00650904    -0.31500
O522        O  0.86158073  0.44743878  0.01749605    -0.23400
C523        C  0.82122857  0.42991947  0.01759248    -0.03400
C524        C  0.77842538  0.44768985  0.01241822    -0.17800
H525        H  0.73048906  0.50831796  0.99869979     0.20200
H526        H  0.91394093  0.50251420  0.01696543     0.15400
H527        H  0.90527753  0.56950079  0.00791983     0.18500
H528        H  0.74086782  0.43944021  0.01267369     0.14400
C529        C  0.75071291  0.74010509  0.74608682     0.29800
C530        C  0.72525509  0.73320314  0.70281922    -0.36500
C531        C  0.71270201  0.75911198  0.67327618     0.15800
C532        C  0.72431629  0.78997184  0.68490397     0.21600
C533        C  0.74924469  0.79699345  0.72908420    -0.34600
C534        C  0.76196899  0.77082683  0.75895265     0.15700
O535        O  0.76630918  0.71914061  0.77840709    -0.26700
C536        C  0.78800850  0.73637578  0.81287465     0.05500
C537        C  0.78637257  0.76880603  0.80296476    -0.31500
O538        O  0.71308378  0.80999458  0.64877336    -0.23400
C539        C  0.69389624  0.79142236  0.61410832    -0.03400
C540        C  0.69244766  0.75972835  0.62786451    -0.17800
H541        H  0.71686266  0.70913278  0.69226726     0.20200
H542        H  0.75926939  0.82093715  0.73874317     0.18600
H543        H  0.80013108  0.78797607  0.82536155     0.18500
H544        H  0.68163147  0.73961702  0.60575662     0.14400
C545        C  0.82007130  0.74833550  0.16833008     0.29800
C546        C  0.80777947  0.77559119  0.19443704    -0.36500
C547        C  0.78935803  0.77082047  0.24181177     0.15800
C548        C  0.78357927  0.74127415  0.26283382     0.21600
C549        C  0.79620468  0.71366072  0.23649194    -0.34600
C550        C  0.81463916  0.71845738  0.18836899     0.15700
O551        O  0.83563732  0.74790145  0.12262239    -0.26700
C552        C  0.84081217  0.71740276  0.11245506     0.05500
C553        C  0.82842155  0.69769428  0.15201114    -0.31500
O554        O  0.76552773  0.74294245  0.30814851    -0.23400
C555        C  0.75958078  0.77396228  0.31534331    -0.03400
C556        C  0.77389644  0.79224653  0.27529747    -0.17800
H557        H  0.81161150  0.79896893  0.17851173     0.20200
H558        H  0.79151828  0.69025471  0.25209390     0.18600
H559        H  0.82759600  0.67209849  0.15304371     0.18500
H560        H  0.77364442  0.81776603  0.27170869     0.14400
loop_ 
_geom_bond_atom_site_label_1 
_geom_bond_atom_site_label_2 
_geom_bond_distance 
_geom_bond_site_symmetry_2 
_ccdc_geom_bond_type 
O1           C16   1.264       .  A
O1           Al9   1.908   1_554  S
C2           O12   1.277       .  A
C2            O3   1.267       .  A
C2          C472   1.473       .  S
O3           Al5   1.887       .  S
O4            C6   1.256       .  A
O4           Al5   1.898       .  S
Al5          O13   1.866       .  S
Al5          O15   1.923   1_556  S
Al5          O14   1.793       .  S
C6           O19   1.255       .  A
C6          C491   1.459       .  S
O7           C17   1.251       .  A
O7           Al9   1.895       .  S
O8           C21   1.268       .  A
O8          Al18   1.931       .  S
Al9          O22   1.859       .  S
Al9          O19   1.899       .  S
Al9          O14   1.794       .  S
O10          C17   1.251       .  A
O10         Al18   1.879       .  S
O11          C20   1.248       .  A
O11         Al18   1.905       .  S
O12         Al18   1.944       .  S
O13          C20   1.245       .  A
O14         Al18   1.796       .  S
O15          C16   1.267       .  A
C16         C552   1.468       .  S
C17         C536   1.469       .  S
C20         C520   1.468       .  S
C21          O22   1.259       .  A
C21         C504   1.462       .  S
O23          C38   1.266       .  A
O23         Al31   1.901   1_556  S
C24          O34   1.278       .  A
C24          O25   1.266       .  A
C24         C427   1.475       .  S
O25         Al27   1.881       .  S
O26          C28   1.258       .  A
O26         Al27   1.915       .  S
Al27         O35   1.888       .  S
Al27         O37   1.925   1_554  S
Al27         O36   1.790       .  S
C28          O41   1.256       .  A
C28         C395   1.460       .  S
O29          C39   1.254       .  A
O29         Al31   1.896       .  S
O30          C43   1.269       .  A
O30         Al40   1.948       .  S
Al31         O44   1.861       .  S
Al31         O41   1.899       .  S
Al31         O36   1.785       .  S
O32          C39   1.253       .  A
O32         Al40   1.877       .  S
O33          C42   1.251       .  A
O33         Al40   1.908       .  S
O34         Al40   1.959       .  S
O35          C42   1.250       .  A
O36         Al40   1.789       .  S
O37          C38   1.269       .  A
C38         C456   1.466       .  S
C39         C440   1.465       .  S
C42         C523   1.465       .  S
C43          O44   1.256       .  A
C43         C411   1.472       .  S
O45          C60   1.255       .  A
O45         Al53   1.869   1_554  S
C46          O56   1.268       .  A
C46          O47   1.270       .  A
C46         C379   1.470       .  S
O47         Al49   1.926       .  S
O48          C50   1.256       .  A
O48         Al49   1.885       .  S
Al49         O57   1.915       .  S
Al49         O59   1.933   1_556  S
Al49         O58   1.778       .  S
C50          O63   1.259       .  A
C50         C408   1.471       .  S
O51          C61   1.263       .  A
O51         Al53   1.911       .  S
O52          C65   1.269       .  A
O52         Al62   1.930       .  S
Al53         O66   1.903       .  S
Al53         O63   1.925       .  S
Al53         O58   1.782       .  S
O54          C61   1.264       .  A
O54         Al62   1.930       .  S
O55          C64   1.258       .  A
O55         Al62   1.922       .  S
O56         Al62   1.902       .  S
O57          C64   1.258       .  A
O58         Al62   1.785       .  S
O59          C60   1.265       .  A
C60         C344   1.457       .  S
C61         C363   1.467       .  S
C64         C331   1.478       .  S
C65          O66   1.264       .  A
C65         C392   1.469       .  S
O67          C82   1.255       .  A
O67         Al75   1.864   1_556  S
C68          O78   1.272       .  A
C68          O69   1.279       .  A
C68         C283   1.481       .  S
O69         Al71   1.954       .  S
O70          C72   1.254       .  A
O70         Al71   1.884       .  S
Al71         O79   1.919       .  S
Al71         O81   1.945   1_554  S
Al71         O80   1.785       .  S
C72          O85   1.251       .  A
C72         C507   1.461       .  S
O73          C83   1.254       .  A
O73         Al75   1.905       .  S
O74          C87   1.274       .  A
O74         Al84   1.929       .  S
Al75         O88   1.895       .  S
Al75         O85   1.886       .  S
Al75         O80   1.794       .  S
O76          C83   1.256       .  A
O76         Al84   1.900       .  S
O77          C86   1.249       .  A
O77         Al84   1.901       .  S
O78         Al84   1.901       .  S
O79          C86   1.253       .  A
O80         Al84   1.791       .  S
O81          C82   1.268       .  A
C82         C296   1.474       .  S
C83         C315   1.468       .  S
C86         C328   1.480       .  S
C87          O88   1.266       .  A
C87         C488   1.464       .  S
O89         C104   1.254       .  A
O89         Al97   1.856       .  S
C90         O100   1.272       .  A
C90          O91   1.276       .  A
C90         C424   1.480       .  S
O91         Al93   1.948       .  S
O92          C94   1.255       .  A
O92         Al93   1.896       .  S
Al93        O101   1.910       .  S
Al93        O103   1.951       .  S
Al93        O102   1.780       .  S
C94         O107   1.254       .  A
C94         C248   1.468       .  S
O95         C105   1.260       .  A
O95         Al97   1.909       .  S
O96         C109   1.272       .  A
O96        Al106   1.936       .  S
Al97        O110   1.910       .  S
Al97        O107   1.902       .  S
Al97        O102   1.780       .  S
O98         C105   1.258       .  A
O98        Al106   1.912       .  S
O99         C108   1.250       .  A
O99        Al106   1.895       .  S
O100       Al106   1.905       .  S
O101        C108   1.254       .  A
O102       Al106   1.788       .  S
O103        C104   1.270       .  A
C104        C360   1.469       .  S
C105        C347   1.457       .  S
C108        C264   1.464       .  S
C109        O110   1.266       .  A
C109        C232   1.472       .  S
O111        C126   1.256       .  A
O111       Al119   1.862       .  S
C112        O122   1.267       .  A
C112        O113   1.273       .  A
C112        C475   1.478       .  S
O113       Al115   1.940       .  S
O114        C116   1.253       .  A
O114       Al115   1.883       .  S
Al115       O123   1.888       .  S
Al115       O125   1.937       .  S
Al115       O124   1.788       .  S
C116        O129   1.253       .  A
C116        C219   1.468       .  S
O117        C127   1.259       .  A
O117       Al119   1.909       .  S
O118        C131   1.269       .  A
O118       Al128   1.931       .  S
Al119       O132   1.892       .  S
Al119       O129   1.902       .  S
Al119       O124   1.793       .  S
O120        C127   1.259       .  A
O120       Al128   1.906       .  S
O121        C130   1.252       .  A
O121       Al128   1.908       .  S
O122       Al128   1.894       .  S
O123        C130   1.250       .  A
O124       Al128   1.796       .  S
O125        C126   1.266       .  A
C126        C312   1.461       .  S
C127        C299   1.468       .  S
C130        C267   1.470       .  S
C131        O132   1.263       .  A
C131        C200   1.470       .  S
O133        C148   1.260       .  A
O133       Al141   1.896       .  S
C134        O144   1.274       .  A
C134        O135   1.264       .  A
C134        C376   1.474       .  S
O135       Al137   1.874       .  S
O136        C138   1.263       .  A
O136       Al137   1.917       .  S
Al137       O145   1.897       .  S
Al137       O147   1.925       .  S
Al137       O146   1.789       .  S
C138        O151   1.259       .  A
C138        C235   1.467       .  S
O139        C149   1.250       .  A
O139       Al141   1.885       .  S
O140        C153   1.272       .  A
O140       Al150   1.946       .  S
Al141       O154   1.870       .  S
Al141       O151   1.906       .  S
Al141       O146   1.794       .  S
O142        C149   1.252       .  A
O142       Al150   1.886       .  S
O143        C152   1.254       .  A
O143       Al150   1.915       .  S
O144       Al150   1.949       .  S
O145        C152   1.252       .  A
O146       Al150   1.794       .  S
O147        C148   1.266       .  A
C148        C443   1.463       .  S
C149        C459   1.464       .  S
C152        C184   1.481       .  S
C153        O154   1.260       .  A
C153        C251   1.471       .  S
O155        C170   1.264       .  A
O155       Al163   1.903       .  S
C156        O166   1.278       .  A
C156        O157   1.267       .  A
C156        C280   1.483       .  S
O157       Al159   1.883       .  S
O158        C160   1.259       .  A
O158       Al159   1.912       .  S
Al159       O167   1.896       .  S
Al159       O169   1.934       .  S
Al159       O168   1.788       .  S
C160        O173   1.257       .  A
C160        C203   1.459       .  S
O161        C171   1.252       .  A
O161       Al163   1.901       .  S
O162        C175   1.272       .  A
O162       Al172   1.952       .  S
Al163       O176   1.859       .  S
Al163       O173   1.899       .  S
Al163       O168   1.794       .  S
O164        C171   1.252       .  A
O164       Al172   1.874       .  S
O165        C174   1.253       .  A
O165       Al172   1.921       .  S
O166       Al172   1.963       .  S
O167        C174   1.252       .  A
O168       Al172   1.790       .  S
O169        C170   1.270       .  A
C170        C539   1.472       .  S
C171        C555   1.469       .  S
C174        C187   1.482       .  S
C175        O176   1.257       .  A
C175        C216   1.471       .  S
C177        C182   1.380       .  A
C177        C178   1.402       .  A
C177        O183   1.319       .  A
C178        C179   1.402   1_545  A
C178        H189   1.083       .  S
C179        C188   1.358       .  A
C179        C180   1.379       .  A
C180        C181   1.413   1_565  A
C180        O186   1.329       .  A
C181        C182   1.413       .  A
C181        H190   1.083       .  S
C182        C185   1.373       .  A
O183        C184   1.331       .  A
C184        C185   1.397       .  A
C185        H191   1.082       .  S
O186        C187   1.336       .  A
C187        C188   1.391       .  A
C188        H192   1.083       .  S
C193        C198   1.381       .  A
C193        C194   1.409       .  A
C193        O199   1.328       .  A
C194        C195   1.410       .  A
C194        H205   1.082       .  S
C195        C204   1.366       .  A
C195        C196   1.382       .  A
C196        C197   1.394       .  A
C196        O202   1.314       .  A
C197        C198   1.395       .  A
C197        H206   1.083       .  S
C198        C201   1.347       .  A
O199        C200   1.333       .  A
C200        C201   1.388       .  A
C201        H207   1.083       .  S
O202        C203   1.326       .  A
C203        C204   1.393       .  A
C204        H208   1.082       .  S
C209        C214   1.380       .  A
C209        C210   1.398       .  A
C209        O215   1.310       .  A
C210        C211   1.395       .  A
C210        H221   1.082       .  S
C211        C220   1.356   1_655  A
C211        C212   1.380   1_655  A
C212        C213   1.411   1_455  A
C212        O218   1.323       .  A
C213        C214   1.409       .  A
C213        H222   1.081   1_655  S
C214        C217   1.374       .  A
O215        C216   1.329       .  A
C216        C217   1.395       .  A
C217        H223   1.081       .  S
O218        C219   1.334       .  A
C219        C220   1.386       .  A
C220        H224   1.083       .  S
C225        C230   1.380       .  A
C225        C226   1.398       .  A
C225        O231   1.311       .  A
C226        C227   1.396       .  A
C226        H237   1.083       .  S
C227        C236   1.356       .  A
C227        C228   1.381       .  A
C228        C229   1.412       .  A
C228        O234   1.324       .  A
C229        C230   1.410       .  A
C229        H238   1.082       .  S
C230        C233   1.375       .  A
O231        C232   1.329       .  A
C232        C233   1.394       .  A
C233        H239   1.082       .  S
O234        C235   1.334       .  A
C235        C236   1.386       .  A
C236        H240   1.083       .  S
C241        C246   1.380   1_455  A
C241        C242   1.410   1_455  A
C241        O247   1.321       .  A
C242        C243   1.408       .  A
C242        H253   1.081       .  S
C243        C252   1.373       .  A
C243        C244   1.379       .  A
C244        C245   1.400       .  A
C244        O250   1.312       .  A
C245        C246   1.397       .  A
C245        H254   1.080       .  S
C246        C249   1.360   1_655  A
O247        C248   1.333       .  A
C248        C249   1.388       .  A
C249        H255   1.082       .  S
O250        C251   1.329       .  A
C251        C252   1.395       .  A
C252        H256   1.082       .  S
C257        C262   1.381       .  A
C257        C258   1.402       .  A
C257        O263   1.316       .  A
C258        C259   1.401       .  A
C258        H269   1.083       .  S
C259        C268   1.361       .  A
C259        C260   1.381       .  A
C260        C261   1.405       .  A
C260        O266   1.320       .  A
C261        C262   1.403       .  A
C261        H270   1.083       .  S
C262        C265   1.365       .  A
O263        C264   1.330       .  A
C264        C265   1.390       .  A
C265        H271   1.082       .  S
O266        C267   1.331       .  A
C267        C268   1.391       .  A
C268        H272   1.083       .  S
C273        C278   1.380       .  A
C273        C274   1.412       .  A
C273        O279   1.329       .  A
C274        C275   1.412       .  A
C274        H285   1.082       .  S
C275        C284   1.371       .  A
C275        C276   1.380       .  A
C276        C277   1.402       .  A
C276        O282   1.320       .  A
C277        C278   1.402       .  A
C277        H286   1.083       .  S
C278        C281   1.358       .  A
O279        C280   1.336       .  A
C280        C281   1.391       .  A
C281        H287   1.083       .  S
O282        C283   1.331       .  A
C283        C284   1.397       .  A
C284        H288   1.082       .  S
C289        C294   1.380       .  A
C289        C290   1.398       .  A
C289        O295   1.312       .  A
C290        C291   1.396       .  A
C290        H301   1.083       .  S
C291        C300   1.355       .  A
C291        C292   1.380       .  A
C292        C293   1.413       .  A
C292        O298   1.326       .  A
C293        C294   1.412       .  A
C293        H302   1.082       .  S
C294        C297   1.375       .  A
O295        C296   1.329       .  A
C296        C297   1.396       .  A
C297        H303   1.082       .  S
O298        C299   1.335       .  A
C299        C300   1.386       .  A
C300        H304   1.083       .  S
C305        C310   1.380       .  A
C305        C306   1.393       .  A
C305        O311   1.307       .  A
C306        C307   1.391       .  A
C306        H317   1.081       .  S
C307        C316   1.351       .  A
C307        C308   1.379       .  A
C308        C309   1.414       .  A
C308        O314   1.325       .  A
C309        C310   1.413       .  A
C309        H318   1.082       .  S
C310        C313   1.376       .  A
O311        C312   1.324       .  A
C312        C313   1.397       .  A
C313        H319   1.082       .  S
O314        C315   1.336       .  A
C315        C316   1.385       .  A
C316        H320   1.082       .  S
C321        C326   1.380   1_554  A
C321        C322   1.407   1_565  A
C321        O327   1.320       .  A
C322        C323   1.405       .  A
C322        H333   1.083       .  S
C323        C332   1.368       .  A
C323        C324   1.380   1_554  A
C324        C325   1.409       .  A
C324        O330   1.321       .  A
C325        C326   1.407   1_545  A
C325        H334   1.083   1_545  S
C326        C329   1.370       .  A
O327        C328   1.333       .  A
C328        C329   1.394   1_554  A
C329        H335   1.083       .  S
O330        C331   1.333       .  A
C331        C332   1.392   1_556  A
C332        H336   1.083       .  S
C337        C342   1.381       .  A
C337        C338   1.401       .  A
C337        O343   1.313       .  A
C338        C339   1.398       .  A
C338        H349   1.083       .  S
C339        C348   1.362       .  A
C339        C340   1.381       .  A
C340        C341   1.403       .  A
C340        O346   1.315       .  A
C341        C342   1.401       .  A
C341        H350   1.083       .  S
C342        C345   1.364       .  A
O343        C344   1.328       .  A
C344        C345   1.389       .  A
C345        H351   1.083       .  S
O346        C347   1.330       .  A
C347        C348   1.386       .  A
C348        H352   1.083       .  S
C353        C358   1.380       .  A
C353        C354   1.401       .  A
C353        O359   1.312       .  A
C354        C355   1.398       .  A
C354        H365   1.083       .  S
C355        C364   1.363       .  A
C355        C356   1.380       .  A
C356        C357   1.410       .  A
C356        O362   1.321       .  A
C357        C358   1.407       .  A
C357        H366   1.083       .  S
C358        C361   1.374       .  A
O359        C360   1.330       .  A
C360        C361   1.393       .  A
C361        H367   1.082       .  S
O362        C363   1.333       .  A
C363        C364   1.387       .  A
C364        H368   1.083       .  S
C369        C374   1.381       .  A
C369        C370   1.407       .  A
C369        O375   1.324       .  A
C370        C371   1.407       .  A
C370        H381   1.083       .  S
C371        C380   1.364       .  A
C371        C372   1.381       .  A
C372        C373   1.399       .  A
C372        O378   1.318       .  A
C373        C374   1.400       .  A
C373        H382   1.083       .  S
C374        C377   1.355       .  A
O375        C376   1.333       .  A
C376        C377   1.391       .  A
C377        H383   1.083       .  S
O378        C379   1.329       .  A
C379        C380   1.394       .  A
C380        H384   1.083       .  S
C385        C390   1.381   1_556  A
C385        C386   1.408       .  A
C385        O391   1.327       .  A
C386        C387   1.409   1_556  A
C386        H397   1.082       .  S
C387        C396   1.365   1_455  A
C387        C388   1.382       .  A
C388        C389   1.396       .  A
C388        O394   1.316       .  A
C389        C390   1.397       .  A
C389        H398   1.083       .  S
C390        C393   1.350       .  A
O391        C392   1.332       .  A
C392        C393   1.388   1_556  A
C393        H399   1.084       .  S
O394        C395   1.326   1_455  A
C395        C396   1.392       .  A
C396        H400   1.083   1_554  S
C401        C406   1.379       .  A
C401        C402   1.413   1_556  A
C401        O407   1.325       .  A
C402        C403   1.411       .  A
C402        H413   1.082       .  S
C403        C412   1.375       .  A
C403        C404   1.380   1_554  A
C404        C405   1.397       .  A
C404        O410   1.311       .  A
C405        C406   1.395       .  A
C405        H414   1.082       .  S
C406        C409   1.356       .  A
O407        C408   1.335       .  A
C408        C409   1.387       .  A
C409        H415   1.082       .  S
O410        C411   1.328   1_556  A
C411        C412   1.396       .  A
C412        H416   1.082       .  S
C417        C422   1.380       .  A
C417        C418   1.410   1_455  A
C417        O423   1.324       .  A
C418        C419   1.409       .  A
C418        H429   1.083       .  S
C419        C428   1.371       .  A
C419        C420   1.380   1_655  A
C420        C421   1.403       .  A
C420        O426   1.317   1_455  A
C421        C422   1.401       .  A
C421        H430   1.083       .  S
C422        C425   1.362       .  A
O423        C424   1.335       .  A
C424        C425   1.391       .  A
C425        H431   1.083       .  S
O426        C427   1.331       .  A
C427        C428   1.394       .  A
C428        H432   1.083       .  S
C433        C438   1.380       .  A
C433        C434   1.408       .  A
C433        O439   1.320       .  A
C434        C435   1.406       .  A
C434        H445   1.081       .  S
C435        C444   1.371       .  A
C435        C436   1.380       .  A
C436        C437   1.397       .  A
C436        O442   1.309       .  A
C437        C438   1.394       .  A
C437        H446   1.082       .  S
C438        C441   1.355       .  A
O439        C440   1.333       .  A
C440        C441   1.388       .  A
C441        H447   1.082       .  S
O442        C443   1.328       .  A
C443        C444   1.393       .  A
C444        H448   1.082       .  S
C449        C454   1.380       .  A
C449        C450   1.408       .  A
C449        O455   1.326       .  A
C450        C451   1.409       .  A
C450        H461   1.082       .  S
C451        C460   1.365       .  A
C451        C452   1.381       .  A
C452        C453   1.394       .  A
C452        O458   1.314       .  A
C453        C454   1.394       .  A
C453        H462   1.082       .  S
C454        C457   1.347       .  A
O455        C456   1.334       .  A
C456        C457   1.387       .  A
C457        H463   1.083       .  S
O458        C459   1.326       .  A
C459        C460   1.395       .  A
C460        H464   1.082       .  S
C465        C470   1.380   1_455  A
C465        C466   1.404       .  A
C465        O471   1.318   1_455  A
C466        C467   1.403       .  A
C466        H477   1.083       .  S
C467        C476   1.362       .  A
C467        C468   1.380       .  A
C468        C469   1.407   1_455  A
C468        O474   1.323       .  A
C469        C470   1.406       .  A
C469        H478   1.083       .  S
C470        C473   1.367       .  A
O471        C472   1.332       .  A
C472        C473   1.393       .  A
C473        H479   1.082       .  S
O474        C475   1.333       .  A
C475        C476   1.392       .  A
C476        H480   1.083       .  S
C481        C486   1.380   1_556  A
C481        C482   1.396       .  A
C481        O487   1.308   1_556  A
C482        C483   1.394       .  A
C482        H493   1.083       .  S
C483        C492   1.355       .  A
C483        C484   1.381       .  A
C484        C485   1.409   1_556  A
C484        O490   1.321   1_455  A
C485        C486   1.406       .  A
C485        H494   1.081       .  S
C486        C489   1.373       .  A
O487        C488   1.327       .  A
C488        C489   1.393       .  A
C489        H495   1.082       .  S
O490        C491   1.331       .  A
C491        C492   1.386   1_655  A
C492        H496   1.083       .  S
C497        C502   1.380       .  A
C497        C498   1.394       .  A
C497        O503   1.307       .  A
C498        C499   1.392       .  A
C498        H509   1.082       .  S
C499        C508   1.354       .  A
C499        C500   1.381       .  A
C500        C501   1.410       .  A
C500        O506   1.320       .  A
C501        C502   1.407       .  A
C501        H510   1.082   1_554  S
C502        C505   1.372   1_554  A
O503        C504   1.326   1_554  A
C504        C505   1.394       .  A
C505        H511   1.082       .  S
O506        C507   1.333       .  A
C507        C508   1.384       .  A
C508        H512   1.083       .  S
C513        C518   1.380       .  A
C513        C514   1.409       .  A
C513        O519   1.325   1_554  A
C514        C515   1.409       .  A
C514        H525   1.083   1_554  S
C515        C524   1.369       .  A
C515        C516   1.381       .  A
C516        C517   1.396       .  A
C516        O522   1.312       .  A
C517        C518   1.395       .  A
C517        H526   1.083       .  S
C518        C521   1.351       .  A
O519        C520   1.334       .  A
C520        C521   1.387   1_556  A
C521        H527   1.083       .  S
O522        C523   1.327       .  A
C523        C524   1.394       .  A
C524        H528   1.082       .  S
C529        C534   1.380       .  A
C529        C530   1.395       .  A
C529        O535   1.314       .  A
C530        C531   1.396       .  A
C530        H541   1.082       .  S
C531        C540   1.350       .  A
C531        C532   1.380       .  A
C532        C533   1.410       .  A
C532        O538   1.327       .  A
C533        C534   1.411       .  A
C533        H542   1.082       .  S
C534        C537   1.369       .  A
O535        C536   1.327       .  A
C536        C537   1.396       .  A
C537        H543   1.082       .  S
O538        C539   1.334       .  A
C539        C540   1.389       .  A
C540        H544   1.083       .  S
C545        C550   1.380       .  A
C545        C546   1.394       .  A
C545        O551   1.309       .  A
C546        C547   1.392       .  A
C546        H557   1.081       .  S
C547        C556   1.351       .  A
C547        C548   1.379       .  A
C548        C549   1.412       .  A
C548        O554   1.325       .  A
C549        C550   1.411       .  A
C549        H558   1.082       .  S
C550        C553   1.374       .  A
O551        C552   1.326       .  A
C552        C553   1.396       .  A
C553        H559   1.082       .  S
O554        C555   1.335       .  A
C555        C556   1.386       .  A
C556        H560   1.082       .  S
