geometry optimzed in LAMMPS
_audit_creation_date              2020-12-01 
_audit_creation_method            'lammps2cif' 
_symmetry_space_group_name_H-M    'P1' 
_symmetry_Int_Tables_number       1 
_symmetry_cell_setting            triclinic 
loop_ 
_symmetry_equiv_pos_as_xyz 
  x,y,z 
_cell_length_a                    42.97890994 
_cell_length_b                    43.05919487670265 
_cell_length_c                    41.79950091269278 
_cell_angle_alpha                 90.13048066684814 
_cell_angle_beta                  90.01024954237474 
_cell_angle_gamma                 90.01406128071456 
loop_ 
_atom_site_label 
_atom_site_type_symbol 
_atom_site_fract_x 
_atom_site_fract_y 
_atom_site_fract_z 
_atom_site_charge 
Zn1        Zn  0.97367299  0.97361921  0.96940136     1.49700
Zn2        Zn  0.02912580  0.02746725  0.96979300     1.49400
Zn3        Zn  0.97482432  0.02605034  0.02559010     1.49100
Zn4        Zn  0.03008358  0.97220235  0.02346701     1.49500
O5          O  0.00206727  0.99976723  0.99705138    -1.80800
O6          O  0.97996010  0.98541999  0.92145013    -0.71400
O7          O  0.01759311  0.07417501  0.97813935    -0.71200
O8          O  0.92733381  0.01830458  0.01729957    -0.70800
O9          O  0.02057688  0.01770417  0.92131919    -0.71400
O10         O  0.92641068  0.98005301  0.98152255    -0.71000
O11         O  0.98366266  0.07311434  0.01841254    -0.71600
O12         O  0.02271815  0.98148252  0.07245770    -0.71000
O13         O  0.07720993  0.02098796  0.98003719    -0.71800
O14         O  0.98375256  0.01565895  0.07314247    -0.71200
O15         O  0.07769928  0.98057995  0.01314016    -0.71600
O16         O  0.01962534  0.92515449  0.01367052    -0.71500
O17         O  0.98443391  0.92642532  0.97449307    -0.71300
C18         C  0.99991962  0.00185653  0.90619252     0.80500
C19         C  0.00019025  0.08841194  0.99837305     0.81000
C20         C  0.91196183  0.99898990  0.00007249     0.79900
C21         C  0.00333765  0.99851354  0.08800510     0.80300
C22         C  0.09245844  0.00106196  0.99672362     0.81400
C23         C  0.00211774  0.91097522  0.99338471     0.80500
C24         C  0.96903081  0.00208058  0.20684531     0.33300
C25         C  0.03446186  0.00068409  0.20819122     0.33300
C26         C  0.98434363  0.97527744  0.22505672    -0.02900
C27         C  0.98588046  0.00021068  0.17370962    -0.03600
C28         C  0.98561083  0.02980267  0.22207580    -0.03500
C29         C  0.01729766  0.97448274  0.22577746    -0.02900
C30         C  0.01888471  0.99917787  0.17433320    -0.03600
C31         C  0.01834285  0.02920876  0.22269714    -0.03500
C32         C  0.02551209  0.94434889  0.23234894    -0.28900
N33         N  0.99920856  0.92763632  0.23654334     0.17600
C34         C  0.97414500  0.94579555  0.23141993    -0.28900
H35         H  0.95053025  0.93737690  0.22880699     0.19500
C36         C  0.02859286  0.99762972  0.14257498    -0.27900
N37         N  0.00318572  0.99834496  0.12288334     0.16300
C38         C  0.97724107  0.00016360  0.14170214    -0.27900
C39         C  0.02799930  0.05770457  0.23349314    -0.28200
N40         N  0.00236729  0.07502325  0.23945665     0.16800
H41         H  0.05172853  0.06611365  0.23440176     0.19500
C42         C  0.97646578  0.05851913  0.23249551    -0.28200
H43         H  0.95299276  0.06765444  0.23243115     0.19500
H44         H  0.95364551  0.00134654  0.13274110     0.19500
H45         H  0.04866612  0.93457927  0.23060090     0.19500
H46         H  0.05247548  0.99685742  0.13441342     0.19500
C47         C  0.03101959  0.99684600  0.78669254     0.33300
C48         C  0.96587507  0.99608497  0.78714359     0.33300
C49         C  0.01502272  0.96741591  0.77398051    -0.02900
C50         C  0.01512816  0.00061208  0.82004946    -0.03600
C51         C  0.01455316  0.02197855  0.76699422    -0.03500
C52         C  0.98230906  0.96707895  0.77413083    -0.02900
C53         C  0.98220023  0.99986644  0.82038134    -0.03600
C54         C  0.98160213  0.02166983  0.76728738    -0.03500
C55         C  0.97312735  0.93790214  0.76474995    -0.28900
N56         N  0.99903520  0.92091882  0.75888095     0.17600
C57         C  0.02466540  0.93841464  0.76451162    -0.28900
H58         H  0.04841019  0.93006305  0.76365185     0.19500
C59         C  0.97338146  0.00038535  0.85240184    -0.27900
N60         N  0.99929923  0.00222063  0.87132340     0.16300
C61         C  0.02473048  0.00250968  0.85173145    -0.27900
C62         C  0.97213148  0.05142590  0.76042733    -0.28200
N63         N  0.99759407  0.06908750  0.75523580     0.16800
H64         H  0.94873144  0.06041268  0.76299686     0.19500
C65         C  0.02340626  0.05184294  0.75994902    -0.28200
H66         H  0.04670099  0.06121028  0.76212428     0.19500
H67         H  0.04860465  0.00268885  0.85996461     0.19500
H68         H  0.94954031  0.92908313  0.76413550     0.19500
H69         H  0.94977116  0.99899406  0.86127957     0.19500
C70         C  0.20983351  0.96944498  0.99522507     0.33300
C71         C  0.20960769  0.03447690  0.00427942     0.33300
C72         C  0.22682645  0.98938692  0.97026464    -0.02900
C73         C  0.17694736  0.98551825  0.99641642    -0.03600
C74         C  0.22453722  0.98202122  0.02575218    -0.03500
C75         C  0.22666187  0.02176266  0.97499211    -0.02900
C76         C  0.17675264  0.01838027  0.00043355    -0.03600
C77         C  0.22450001  0.01439276  0.03063171    -0.03500
C78         C  0.24019996  0.03509666  0.94881129    -0.28900
N79         N  0.24841025  0.01214664  0.92845510     0.17600
C80         C  0.24041116  0.98424383  0.94103332    -0.28900
H81         H  0.24161722  0.96224083  0.92850161     0.19500
C82         C  0.14540136  0.02724728  0.00015264    -0.27900
N83         N  0.12668752  0.00158063  0.99705009     0.16300
C84         C  0.14584010  0.97621981  0.99501204    -0.27900
C85         C  0.23768398  0.01930489  0.06016838    -0.28200
N86         N  0.24565453  0.99125538  0.07249391     0.16800
H87         H  0.23948238  0.04129101  0.07265106     0.19500
C88         C  0.23777293  0.96847642  0.05189212    -0.28200
H89         H  0.23955648  0.94382483  0.05664070     0.19500
H90         H  0.13777073  0.95254074  0.99240562     0.19500
H91         H  0.24114928  0.05968128  0.94348375     0.19500
H92         H  0.13686712  0.05075702  0.00276337     0.19500
C93         C  0.00144727  0.20428211  0.03245733     0.33300
C94         C  0.00332684  0.20455687  0.96638388     0.33300
C95         C  0.03088189  0.21729198  0.01704360    -0.02900
C96         C  0.99861801  0.17182305  0.01594870    -0.03600
C97         C  0.97632165  0.22321099  0.01558422    -0.03500
C98         C  0.03180733  0.21748453  0.98363141    -0.02900
C99         C  0.99993057  0.17198313  0.98221248    -0.03600
C100        C  0.97717617  0.22325415  0.98201831    -0.03500
C101        C  0.06063686  0.22792046  0.97477590    -0.28900
N102        N  0.07681060  0.23409071  0.00181327     0.17600
C103        C  0.05916837  0.22765323  0.02774522    -0.28900
H104        H  0.06703480  0.22863556  0.05233698     0.19500
C105        C  0.00072922  0.14112644  0.97242565    -0.27900
N106        N  0.99916798  0.12225560  0.99861919     0.16300
C107        C  0.99770134  0.14081941  0.02517554    -0.27900
C108        C  0.94805976  0.23157556  0.97166496    -0.28200
N109        N  0.93026637  0.23726361  0.99763314     0.16800
H110        H  0.93944537  0.23001073  0.94736564     0.19500
C111        C  0.94679889  0.23158979  0.02443869    -0.28200
H112        H  0.93702985  0.23001813  0.04826261     0.19500
H113        H  0.99741067  0.13239873  0.04954810     0.19500
H114        H  0.06985804  0.22911208  0.95070394     0.19500
H115        H  0.00284429  0.13301810  0.94799791     0.19500
C116        C  0.79511619  0.03046969  0.00860446     0.33300
C117        C  0.79549427  0.96575241  0.99732488     0.33300
C118        C  0.77988191  0.01878493  0.97795987    -0.02900
C119        C  0.82794145  0.01446651  0.00637997    -0.03600
C120        C  0.77865924  0.00973618  0.03321178    -0.03500
C121        C  0.77995691  0.98648430  0.97187838    -0.02900
C122        C  0.82808258  0.98189475  0.00058844    -0.03600
C123        C  0.77902956  0.97750158  0.02743096    -0.03500
C124        C  0.77209928  0.98313056  0.94016252    -0.28900
N125        N  0.76653582  0.01181650  0.92802339     0.17600
C126        C  0.77141619  0.03359859  0.95053612    -0.28900
H127        H  0.77176669  0.05840547  0.94630587     0.19500
C128        C  0.85916305  0.97323251  0.99740567    -0.27900
N129        N  0.87792194  0.99859801  0.00164662     0.16300
C130        C  0.85903867  0.02365158  0.00726128    -0.27900
C131        C  0.76538533  0.96328043  0.05305663    -0.28200
N132        N  0.75689892  0.98555699  0.07404747     0.16800
H133        H  0.76411772  0.93852808  0.05740323     0.19500
C134        C  0.76486331  0.01389787  0.06250190    -0.28200
H135        H  0.76312121  0.03553919  0.07562182     0.19500
H136        H  0.86726857  0.04714746  0.01091426     0.19500
H137        H  0.77301576  0.96188943  0.92628728     0.19500
H138        H  0.86748205  0.95004260  0.99222100     0.19500
C139        C  0.00248271  0.79495409  0.95671191     0.33300
C140        C  0.00340746  0.79402547  0.02291065     0.33300
C141        C  0.03071824  0.77969184  0.97249508    -0.02900
C142        C  0.00164218  0.82758288  0.97355745    -0.03600
C143        C  0.97584911  0.77798092  0.97321760    -0.03500
C144        C  0.03111578  0.77915863  0.00595953    -0.02900
C145        C  0.00247937  0.82692441  0.00735909    -0.03600
C146        C  0.97628569  0.77755067  0.00657934    -0.03500
C147        C  0.05993462  0.76900875  0.01518891    -0.28900
N148        N  0.07669344  0.76331379  0.98842800     0.17600
C149        C  0.05941009  0.76991163  0.96225220    -0.28900
H150        H  0.06799637  0.77022569  0.93790203     0.19500
C151        C  0.00318866  0.85759591  0.01778948    -0.27900
N152        N  0.00207991  0.87703284  0.99202608     0.16300
C153        C  0.00091127  0.85891171  0.96503304    -0.27900
C154        C  0.94891865  0.76447918  0.01649296    -0.28200
N155        N  0.93218957  0.75710719  0.99015093     0.16800
H156        H  0.94050564  0.76317343  0.04087094     0.19500
C157        C  0.94816966  0.76524619  0.96360046    -0.28200
H158        H  0.93907609  0.76466981  0.93944249     0.19500
H159        H  0.00025111  0.86783312  0.94086052     0.19500
H160        H  0.06899885  0.76853258  0.03935569     0.19500
H161        H  0.00423981  0.86519915  0.04246124     0.19500
Zn162      Zn  0.02708901  0.21993581  0.19835670     1.49700
Zn163      Zn  0.02188836  0.27820007  0.24833606     1.49400
Zn164      Zn  0.98003624  0.27139903  0.18488823     1.49100
Zn165      Zn  0.97352550  0.22872389  0.25103131     1.49500
O166        O  0.00039092  0.24917773  0.22039020    -1.80800
O167        O  0.07000004  0.23642635  0.20220246    -0.71400
O168        O  0.00763826  0.32054570  0.23816579    -0.71200
O169        O  0.98653690  0.25165598  0.13896807    -0.70800
O170        O  0.06575414  0.27638119  0.23637334    -0.71400
O171        O  0.01775710  0.21238729  0.15051437    -0.71000
O172        O  0.98914988  0.31804669  0.18826133    -0.71600
O173        O  0.93124874  0.24216624  0.24003522    -0.71000
O174        O  0.01817220  0.27257161  0.29732522    -0.71800
O175        O  0.93504625  0.27004976  0.19493858    -0.71200
O176        O  0.97990001  0.23855685  0.29877978    -0.71600
O177        O  0.97907920  0.18300544  0.24757969    -0.71500
O178        O  0.02340657  0.17890499  0.21990308    -0.71300
C179        C  0.08144658  0.25901030  0.21794048     0.80500
C180        C  0.99695113  0.33342372  0.21321665     0.81000
C181        C  0.00161210  0.22738997  0.13019075     0.79900
C182        C  0.91954299  0.25873974  0.21799938     0.80300
C183        C  0.99910790  0.25609406  0.31326910     0.81400
C184        C  0.00173629  0.16721875  0.23672916     0.80500
N185        N  0.03199564  0.25932340  0.46103113    -0.33300
N186        N  0.03420369  0.25809164  0.53439666    -0.53800
N187        N  0.97024973  0.24723897  0.53544571    -0.33300
N188        N  0.96807928  0.25233880  0.46207952    -0.53800
C189        C  0.06034430  0.27082910  0.46767565     0.30300
C190        C  0.02595556  0.26554925  0.42971726     0.30300
C191        C  0.97499760  0.25229099  0.56733242     0.30300
C192        C  0.93982643  0.25221469  0.52937149     0.30300
C193        C  0.06461259  0.25732350  0.52649701     0.38900
C194        C  0.03214081  0.25059264  0.56592995     0.38900
C195        C  0.97149381  0.24887523  0.42996794     0.38900
C196        C  0.93868222  0.24424563  0.46914710     0.38900
C197        C  0.07266074  0.28434687  0.44019933    -0.18600
C198        C  0.05097414  0.28089916  0.41626354    -0.18600
C199        C  0.94700989  0.25976421  0.58173577    -0.18500
C200        C  0.92488008  0.25988451  0.55786392    -0.18500
C201        C  0.08209637  0.24967490  0.55336873    -0.19600
C202        C  0.06152503  0.24553813  0.57831766    -0.19600
C203        C  0.94396583  0.23880550  0.41639746    -0.19600
C204        C  0.92312059  0.23589356  0.44117779    -0.19600
C205        C  0.07711268  0.26573044  0.49626549    -0.15000
C206        C  0.99874799  0.25682154  0.41298230    -0.15000
C207        C  0.92457759  0.24771221  0.49954116    -0.15000
C208        C  0.00395598  0.25003582  0.58359967    -0.15000
H209        H  0.09533868  0.29495408  0.43745969     0.18000
H210        H  0.05340705  0.28866959  0.39178201     0.18000
H211        H  0.94298932  0.26491593  0.60675112     0.18000
H212        H  0.90040055  0.26480462  0.56122518     0.18000
H213        H  0.10715730  0.24773671  0.55497250     0.16200
H214        H  0.06749937  0.23966083  0.60271872     0.16200
H215        H  0.93925785  0.23456967  0.39132526     0.16200
H216        H  0.89901745  0.22897882  0.43876936     0.16200
H217        H  0.01988289  0.24443328  0.47610312     0.29500
H218        H  0.98579324  0.23779336  0.51904384     0.29500
Zn219      Zn  0.02690185  0.21311157  0.80050207     1.49700
Zn220      Zn  0.98660347  0.26911098  0.81274544     1.49400
Zn221      Zn  0.02808876  0.26949798  0.74907245     1.49100
Zn222      Zn  0.97415447  0.22548408  0.74744094     1.49500
O223        O  0.00334472  0.24387833  0.77727515    -1.80800
O224        O  0.01514356  0.20651870  0.84754130    -0.71400
O225        O  0.99380299  0.31550791  0.80350910    -0.71200
O226        O  0.07088234  0.26826871  0.76689997    -0.70800
O227        O  0.99649974  0.25297686  0.85954087    -0.71400
O228        O  0.07041815  0.22852506  0.80143404    -0.71000
O229        O  0.01313988  0.31293322  0.75396016    -0.71600
O230        O  0.98059875  0.23593467  0.69889983    -0.71000
O231        O  0.94108025  0.26541550  0.80870576    -0.71800
O232        O  0.02627583  0.25952875  0.70019743    -0.71200
O233        O  0.93244489  0.23904163  0.76316052    -0.71600
O234        O  0.97827990  0.17909974  0.75053578    -0.71500
O235        O  0.02188176  0.17211053  0.77887526    -0.71300
C236        C  0.00537894  0.22583949  0.86829794     0.80500
C237        C  0.00147246  0.32825896  0.77702250     0.81000
C238        C  0.08388399  0.25124955  0.78786387     0.79900
C239        C  0.00379349  0.24782533  0.68418632     0.80300
C240        C  0.92306425  0.25398374  0.78771448     0.81400
C241        C  0.99958114  0.16176741  0.76187364     0.80500
N242        N  0.02871169  0.46853676  0.24337040    -0.33300
N243        N  0.96189510  0.47000131  0.25021128    -0.53800
N244        N  0.96449053  0.53632150  0.25472554    -0.33300
N245        N  0.03116618  0.53467363  0.24829992    -0.53800
C246        C  0.02251644  0.43795484  0.24074542     0.30300
C247        C  0.05878738  0.47159810  0.25269969     0.30300
C248        C  0.93348155  0.53215403  0.25783077     0.30300
C249        C  0.96919793  0.56529302  0.24304068     0.30300
C250        C  0.96474459  0.43972855  0.24228645     0.38900
C251        C  0.93214772  0.47450835  0.25952793     0.38900
C252        C  0.06179694  0.52946223  0.25172414     0.38900
C253        C  0.02742720  0.56491899  0.24162018     0.38900
C254        C  0.04925762  0.42107563  0.24723841    -0.18600
C255        C  0.07200369  0.44228797  0.25535883    -0.18600
C256        C  0.91815809  0.55932228  0.24964297    -0.18500
C257        C  0.94063115  0.58003741  0.23977551    -0.18500
C258        C  0.93649023  0.42473064  0.24651701    -0.19600
C259        C  0.91598231  0.44664406  0.25805464    -0.19600
C260        C  0.07804924  0.55704545  0.24791148    -0.19600
C261        C  0.05623195  0.57948417  0.24084705    -0.19600
C262        C  0.99302633  0.42495536  0.23404140    -0.15000
C263        C  0.07501831  0.49999799  0.25732544    -0.15000
C264        C  0.99838812  0.57914373  0.23588729    -0.15000
C265        C  0.91861749  0.50387657  0.26576401    -0.15000
H266        H  0.05179310  0.39606459  0.24733719     0.18000
H267        H  0.09569691  0.43673876  0.26200343     0.18000
H268        H  0.89329596  0.56330969  0.24929492     0.18000
H269        H  0.93636406  0.60336261  0.23123639     0.18000
H270        H  0.93145845  0.40036488  0.24273713     0.16200
H271        H  0.89167172  0.44274677  0.26348432     0.16200
H272        H  0.10298182  0.56043567  0.24900164     0.16200
H273        H  0.06099677  0.60370999  0.23603884     0.16200
H274        H  0.01350447  0.48584243  0.23632662     0.29500
H275        H  0.98113990  0.52064564  0.26240861     0.29500
Zn276      Zn  0.02382577  0.78415047  0.18938837     1.49700
Zn277      Zn  0.96947188  0.77245609  0.24195236     1.49400
Zn278      Zn  0.98164890  0.72908581  0.17653939     1.49100
Zn279      Zn  0.02373025  0.72852159  0.24152074     1.49500
O280        O  0.99910750  0.75368841  0.21231261    -1.80800
O281        O  0.01811724  0.82489443  0.21038062    -0.71400
O282        O  0.92747086  0.76033971  0.22552992    -0.71200
O283        O  0.99123459  0.74595338  0.12981290    -0.70800
O284        O  0.97532454  0.81860284  0.24012768    -0.71400
O285        O  0.01447580  0.79031085  0.14170212    -0.71000
O286        O  0.93567995  0.73194961  0.18125773    -0.71600
O287        O  0.01273447  0.68460474  0.23325308    -0.71000
O288        O  0.97395402  0.76148513  0.29060501    -0.71800
O289        O  0.99128031  0.68296981  0.18448587    -0.71200
O290        O  0.01861033  0.73617522  0.29051356    -0.71600
O291        O  0.06776363  0.73313943  0.22857912    -0.71500
O292        O  0.06783142  0.77095938  0.19198039    -0.71300
C293        C  0.99680226  0.83545048  0.22841085     0.80500
C294        C  0.91776316  0.74455121  0.20167367     0.81000
C295        C  0.00275025  0.77207013  0.12098901     0.79900
C296        C  0.00139376  0.66963761  0.20977628     0.80300
C297        C  0.99611107  0.74846681  0.30592545     0.81400
C298        C  0.08153750  0.75025887  0.20831307     0.80500
N299        N  0.02942464  0.75682723  0.45460098    -0.33300
N300        N  0.96870560  0.73382972  0.45581938    -0.53800
N301        N  0.96996934  0.73563086  0.52938908    -0.33300
N302        N  0.03126752  0.75498591  0.52828374    -0.53800
C303        C  0.02580427  0.74999560  0.42289405     0.30300
C304        C  0.06021466  0.75647810  0.46106121     0.30300
C305        C  0.94455063  0.71845141  0.52295947     0.30300
C306        C  0.97655556  0.73216554  0.56108817     0.30300
C307        C  0.96941322  0.74109589  0.42415232     0.38900
C308        C  0.93868939  0.72857608  0.46348442     0.38900
C309        C  0.05948648  0.76654092  0.52106700     0.38900
C310        C  0.02727156  0.75838474  0.56037593     0.38900
C311        C  0.05470145  0.74625411  0.40891161    -0.18600
C312        C  0.07636938  0.75005593  0.43292616    -0.18600
C313        C  0.93452059  0.70416948  0.55097093    -0.18500
C314        C  0.95465469  0.71290455  0.57498268    -0.18500
C315        C  0.93973220  0.73995219  0.41149112    -0.19600
C316        C  0.92025233  0.73211051  0.43634416    -0.19600
C317        C  0.07363982  0.77738327  0.54891458    -0.19600
C318        C  0.05317169  0.77233334  0.57372257    -0.19600
C319        C  0.99699888  0.74677569  0.40652728    -0.15000
C320        C  0.07446780  0.76349462  0.49097616    -0.15000
C321        C  0.00166784  0.74624335  0.57767293    -0.15000
C322        C  0.92768647  0.71873423  0.49386790    -0.15000
H323        H  0.05964566  0.74068630  0.38416529     0.18000
H324        H  0.10132319  0.74841593  0.42988994     0.18000
H325        H  0.91429724  0.68946752  0.55394302     0.18000
H326        H  0.95331660  0.70585455  0.59978294     0.18000
H327        H  0.93288371  0.74409941  0.38695146     0.16200
H328        H  0.89532504  0.72899691  0.43450076     0.16200
H329        H  0.09674873  0.78712640  0.55126630     0.16200
H330        H  0.05731493  0.77735010  0.59874732     0.16200
H331        H  0.01234382  0.76407674  0.47058371     0.29500
H332        H  0.97929089  0.75178769  0.51363083     0.29500
Zn333      Zn  0.02007269  0.71714220  0.74198297     1.49700
Zn334      Zn  0.98052401  0.72246211  0.80633133     1.49400
Zn335      Zn  0.02650678  0.77445904  0.79151144     1.49100
Zn336      Zn  0.97068168  0.76652984  0.74144416     1.49500
O337        O  0.99885587  0.74569070  0.77042539    -1.80800
O338        O  0.00242703  0.67491008  0.74841815    -0.71400
O339        O  0.98880444  0.74260974  0.85232481    -0.71200
O340        O  0.06865398  0.75443662  0.79125103    -0.70800
O341        O  0.98903442  0.67531622  0.80011412    -0.71400
O342        O  0.06324788  0.71411258  0.75781162    -0.71000
O343        O  0.01617645  0.78401628  0.83849396    -0.71600
O344        O  0.97602919  0.81255166  0.74786518    -0.71000
O345        O  0.93500445  0.72427513  0.79908360    -0.71800
O346        O  0.02380970  0.81546140  0.76905393    -0.71200
O347        O  0.92821788  0.75154467  0.75392205    -0.71600
O348        O  0.97838322  0.75899511  0.69276234    -0.71500
O349        O  0.01898357  0.72750685  0.69346920    -0.71300
C350        C  0.99381255  0.66090244  0.77365327     0.80500
C351        C  0.00201366  0.76842109  0.85982998     0.81000
C352        C  0.07899920  0.73000698  0.77765529     0.79900
C353        C  0.99998078  0.82800822  0.75631952     0.80300
C354        C  0.91790037  0.73518171  0.77702607     0.81400
C355        C  0.99945834  0.74387762  0.67785809     0.80500
N356        N  0.02741772  0.46222769  0.73349847    -0.33300
N357        N  0.95518047  0.46069539  0.73698477    -0.53800
N358        N  0.95304634  0.52504629  0.73573101    -0.33300
N359        N  0.02545346  0.52644698  0.73768253    -0.53800
C360        C  0.02204669  0.43353711  0.74548117     0.30300
C361        C  0.05881726  0.46765983  0.73472580     0.30300
C362        C  0.92168230  0.51939573  0.73767995     0.30300
C363        C  0.95874981  0.55349635  0.74842162     0.30300
C364        C  0.96262286  0.43039426  0.74063359     0.38900
C365        C  0.92387400  0.46244256  0.73158532     0.38900
C366        C  0.05661219  0.52472739  0.73123768     0.38900
C367        C  0.01810934  0.55673950  0.74190415     0.38900
C368        C  0.05062207  0.42012099  0.75310645    -0.18600
C369        C  0.07362113  0.44134770  0.74589894    -0.18600
C370        C  0.90721517  0.54532128  0.75035701    -0.18500
C371        C  0.93040706  0.56651277  0.75750668    -0.18500
C372        C  0.93570525  0.41267020  0.73754856    -0.19600
C373        C  0.91142403  0.43282022  0.73136785    -0.19600
C374        C  0.06911460  0.55429663  0.73122699    -0.19600
C375        C  0.04503064  0.57441368  0.73832040    -0.19600
C376        C  0.99256273  0.41832760  0.74899612    -0.15000
C377        C  0.07418395  0.49655899  0.72888722    -0.15000
C378        C  0.98830343  0.56893586  0.75093720    -0.15000
C379        C  0.90617553  0.49058748  0.73095478    -0.15000
H380        H  0.05465655  0.39727632  0.76301137     0.18000
H381        H  0.09828682  0.43831556  0.75008037     0.18000
H382        H  0.88267645  0.54812665  0.75540911     0.18000
H383        H  0.92669582  0.58908382  0.76828921     0.18000
H384        H  0.93368641  0.38771581  0.73982593     0.16200
H385        H  0.88719650  0.42647658  0.72866737     0.16200
H386        H  0.09324839  0.56063265  0.72777439     0.16200
H387        H  0.04721013  0.59934986  0.74073846     0.16200
H388        H  0.01048109  0.47623180  0.72325123     0.29500
H389        H  0.96968588  0.51148230  0.72433652     0.29500
Zn390      Zn  0.74112889  0.46673072  0.69838029     1.49700
Zn391      Zn  0.74525936  0.51666635  0.75262659     1.49400
Zn392      Zn  0.68715969  0.51918449  0.69549788     1.49100
Zn393      Zn  0.68265852  0.47696162  0.75604771     1.49500
O394        O  0.71402995  0.49455580  0.72522017    -1.80800
O395        O  0.79103108  0.47368965  0.70411714    -0.71400
O396        O  0.73848837  0.56068961  0.74050126    -0.71200
O397        O  0.69363114  0.50727137  0.64824831    -0.70800
O398        O  0.79253775  0.50701313  0.74438516    -0.71400
O399        O  0.72764500  0.46835498  0.64891515    -0.71000
O400        O  0.70116124  0.56324000  0.70271318    -0.71600
O401        O  0.63467903  0.48343379  0.74312858    -0.71000
O402        O  0.73774810  0.51163699  0.80163294    -0.71800
O403        O  0.63863775  0.51511514  0.70175069    -0.71200
O404        O  0.69162064  0.48861190  0.80443729    -0.71600
O405        O  0.69277330  0.43190850  0.75465069    -0.71500
O406        O  0.73118709  0.42493867  0.71855888    -0.71300
C407        C  0.80697589  0.48989145  0.72426687     0.80500
C408        C  0.72141852  0.57574908  0.72102948     0.81000
C409        C  0.70896801  0.48631938  0.63348628     0.79900
C410        C  0.62161042  0.49939614  0.72090399     0.80300
C411        C  0.71540911  0.50062005  0.81831713     0.81400
C412        C  0.71266639  0.41497873  0.74026590     0.80500
N413        N  0.74134461  0.46172271  0.03440331    -0.33300
N414        N  0.74092099  0.53217920  0.03664184    -0.53800
N415        N  0.73532882  0.53373228  0.96692530    -0.33300
N416        N  0.73258407  0.46329217  0.96510370    -0.53800
C417        C  0.73976848  0.46668241  0.06660646     0.30300
C418        C  0.73812321  0.43053364  0.02868215     0.30300
C419        C  0.73421398  0.56499231  0.97320663     0.30300
C420        C  0.72741901  0.52892435  0.93566136     0.30300
C421        C  0.74518079  0.52576194  0.06828583     0.38900
C422        C  0.74433474  0.56353519  0.03262684     0.38900
C423        C  0.73572143  0.43180440  0.96847017     0.38900
C424        C  0.73009681  0.46961269  0.93321460     0.38900
C425        C  0.73562537  0.43812581  0.08145973    -0.18600
C426        C  0.73475475  0.41560083  0.05782326    -0.18600
C427        C  0.72577596  0.58013224  0.94528598    -0.18500
C428        C  0.72144569  0.55768300  0.92192467    -0.18500
C429        C  0.75095767  0.55341650  0.08441397    -0.19600
C430        C  0.75053221  0.57702131  0.06207782    -0.19600
C431        C  0.73475252  0.41814791  0.93845873    -0.19600
C432        C  0.73112483  0.44175045  0.91641783    -0.19600
C433        C  0.74323208  0.49576092  0.08343434    -0.15000
C434        C  0.73838794  0.41491442  0.99811676    -0.15000
C435        C  0.72636537  0.49972795  0.91854248    -0.15000
C436        C  0.74084210  0.58048362  0.00314372    -0.15000
H437        H  0.73363311  0.43380016  0.10687247     0.18000
H438        H  0.73173184  0.39094794  0.06173976     0.18000
H439        H  0.72281973  0.60488473  0.94203244     0.18000
H440        H  0.71471866  0.56217429  0.89741796     0.18000
H441        H  0.75510058  0.55637654  0.10977890     0.16200
H442        H  0.75413612  0.60143010  0.06708153     0.16200
H443        H  0.73624669  0.39362525  0.93294504     0.16200
H444        H  0.72950618  0.43863871  0.89077344     0.16200
H445        H  0.74674124  0.47854585  0.01767186     0.29500
H446        H  0.74316466  0.51665276  0.98229715     0.29500
Zn447      Zn  0.72653186  0.24835407  0.98096168     1.49700
Zn448      Zn  0.78314652  0.19435890  0.97877329     1.49400
Zn449      Zn  0.77706539  0.25616028  0.02672525     1.49100
Zn450      Zn  0.73563186  0.18862750  0.03081940     1.49500
O451        O  0.75603889  0.22155887  0.00450352    -1.80800
O452        O  0.72852469  0.23332460  0.93636453    -0.71400
O453        O  0.82533090  0.21382670  0.98102839    -0.71200
O454        O  0.76699018  0.30347822  0.01682177    -0.70800
O455        O  0.76552901  0.19650560  0.93454927    -0.71400
O456        O  0.72900334  0.29806027  0.98227759    -0.71000
O457        O  0.82244042  0.25034085  0.01939131    -0.71600
O458        O  0.73820862  0.20575278  0.07537136    -0.71000
O459        O  0.78882781  0.14648957  0.99060842    -0.71800
O460        O  0.76445691  0.25080655  0.07169143    -0.71200
O461        O  0.75356748  0.14094173  0.02833769    -0.71600
O462        O  0.68865696  0.19146441  0.02220018    -0.71500
O463        O  0.68464364  0.23684548  0.99636877    -0.71300
C464        C  0.74406612  0.21262041  0.92166132     0.80500
C465        C  0.83767175  0.23420876  0.99919473     0.81000
C466        C  0.74661199  0.31598031  0.99872765     0.79900
C467        C  0.74851008  0.23107104  0.08722122     0.80300
C468        C  0.77503548  0.12883649  0.01072692     0.81400
C469        C  0.67255493  0.21380798  0.01065966     0.80500
Zn470      Zn  0.78924123  0.79959030  0.02156487     1.49700
Zn471      Zn  0.73580752  0.80809305  0.97647251     1.49400
Zn472      Zn  0.77641526  0.73961040  0.97298589     1.49100
Zn473      Zn  0.73107566  0.74660313  0.02325913     1.49500
O474        O  0.75882108  0.77389842  0.99837465    -1.80800
O475        O  0.79430829  0.84808234  0.01078678    -0.71400
O476        O  0.73359910  0.79290619  0.93133241    -0.71200
O477        O  0.82230027  0.74399078  0.97448940    -0.70800
O478        O  0.75399354  0.85551928  0.97923955    -0.71400
O479        O  0.83041852  0.77851198  0.01402529    -0.71000
O480        O  0.75876696  0.74703594  0.93057238    -0.71600
O481        O  0.73355567  0.69696503  0.02166159    -0.71000
O482        O  0.68996617  0.80538249  0.99001663    -0.71800
O483        O  0.76705466  0.69219247  0.98249585    -0.71200
O484        O  0.68787011  0.75801310  0.01186727    -0.71600
O485        O  0.73617533  0.76190230  0.06706137    -0.71500
O486        O  0.77473489  0.79724930  0.06708818    -0.71300
C487        C  0.77775245  0.86678188  0.99408829     0.80500
C488        C  0.74197481  0.76777603  0.91762441     0.81000
C489        C  0.84008177  0.75856875  0.99366402     0.79900
C490        C  0.74901833  0.67935657  0.00278557     0.80300
C491        C  0.67472425  0.78220534  0.00101055     0.81400
C492        C  0.75301129  0.78215574  0.08086314     0.80500
N493        N  0.53656561  0.75715734  0.96578246    -0.33300
N494        N  0.47123722  0.75950818  0.96841964    -0.53800
N495        N  0.47305420  0.75147082  0.04055804    -0.33300
N496        N  0.53846356  0.75375977  0.03842791    -0.53800
C497        C  0.53068878  0.76135618  0.93403035     0.30300
C498        C  0.56593831  0.76688815  0.97160157     0.30300
C499        C  0.44382629  0.76249474  0.03632094     0.30300
C500        C  0.47899236  0.75097301  0.07262583     0.30300
C501        C  0.47342092  0.75610270  0.93614163     0.38900
C502        C  0.44065329  0.76090035  0.97565290     0.38900
C503        C  0.56905817  0.75638461  0.03139288     0.38900
C504        C  0.53624989  0.74533568  0.06973721     0.38900
C505        C  0.55721948  0.77246937  0.91921926    -0.18600
C506        C  0.57927310  0.77633494  0.94285457    -0.18600
C507        C  0.43070181  0.76815188  0.06618312    -0.18500
C508        C  0.45266688  0.76055808  0.08895583    -0.18500
C509        C  0.44397911  0.75522909  0.92279391    -0.19600
C510        C  0.42328757  0.75858898  0.94766145    -0.19600
C511        C  0.58646085  0.74973007  0.05857215    -0.19600
C512        C  0.56576536  0.74240438  0.08262519    -0.19600
C513        C  0.50159414  0.75693218  0.91842986    -0.15000
C514        C  0.58172769  0.76636262  0.00159886    -0.15000
C515        C  0.50795549  0.74358663  0.08744789    -0.15000
C516        C  0.42793374  0.76629062  0.00659214    -0.15000
H517        H  0.56005459  0.77830169  0.89421394     0.18000
H518        H  0.60260548  0.78507897  0.93915462     0.18000
H519        H  0.40755155  0.77678985  0.07115001     0.18000
H520        H  0.44990810  0.76291939  0.11458298     0.18000
H521        H  0.43802419  0.75349381  0.89769271     0.16200
H522        H  0.39822436  0.75942934  0.94531044     0.16200
H523        H  0.61153997  0.75023014  0.06090193     0.16200
H524        H  0.57175566  0.73675405  0.10707881     0.16200
H525        H  0.52237058  0.74613581  0.98228727     0.29500
H526        H  0.48705069  0.74251351  0.02255137     0.29500
Zn527      Zn  0.27953709  0.74825520  0.97642983     1.49700
Zn528      Zn  0.27315580  0.81509379  0.01310972     1.49400
Zn529      Zn  0.22376262  0.80257792  0.96567942     1.49100
Zn530      Zn  0.22961307  0.74874381  0.02282905     1.49500
O531        O  0.25050405  0.77881089  0.99475754    -1.80800
O532        O  0.32191960  0.75826691  0.99258058    -0.71400
O533        O  0.25579384  0.86192228  0.00529815    -0.71200
O534        O  0.24353847  0.79520306  0.92262247    -0.70800
O535        O  0.32014668  0.80866231  0.00594018    -0.71400
O536        O  0.28020724  0.75894345  0.93153587    -0.71000
O537        O  0.21650926  0.85147266  0.97334491    -0.71600
O538        O  0.18417361  0.75384921  0.01393895    -0.71000
O539        O  0.26948843  0.80780968  0.05914062    -0.71800
O540        O  0.18191062  0.78240308  0.96906206    -0.71200
O541        O  0.24230816  0.76366367  0.06655463    -0.71600
O542        O  0.23765794  0.69954272  0.01812460    -0.71500
O543        O  0.27234193  0.69945837  0.97969841    -0.71300
C544        C  0.33515330  0.78334505  0.00123671     0.80500
C545        C  0.23193270  0.87153851  0.98958846     0.81000
C546        C  0.26563750  0.77744162  0.91341258     0.79900
C547        C  0.16928488  0.76558968  0.99052668     0.80300
C548        C  0.25804829  0.78683656  0.07686593     0.81400
C549        C  0.25492358  0.68415254  0.99877078     0.80500
N550        N  0.25236198  0.53551282  0.02938266    -0.33300
N551        N  0.25810070  0.53805665  0.96006924    -0.53800
N552        N  0.26091236  0.46703526  0.95800073    -0.33300
N553        N  0.25295254  0.46464599  0.02693845    -0.53800
C554        C  0.25159319  0.56717788  0.02560804     0.30300
C555        C  0.24928244  0.52872856  0.06106710     0.30300
C556        C  0.25931550  0.47398253  0.92625026     0.30300
C557        C  0.25702319  0.43558942  0.96154231     0.30300
C558        C  0.25938136  0.56934879  0.96581497     0.38900
C559        C  0.26334248  0.53332090  0.92828603     0.38900
C560        C  0.25141455  0.46917491  0.05916310     0.38900
C561        C  0.25490037  0.43334957  0.02157442     0.38900
C562        C  0.24768585  0.58050602  0.05556403    -0.18600
C563        C  0.24630885  0.55659720  0.07765155    -0.18600
C564        C  0.25480496  0.44642287  0.90944790    -0.18500
C565        C  0.25345009  0.42251852  0.93145543    -0.18500
C566        C  0.26537525  0.58450209  0.93727085    -0.19600
C567        C  0.26789254  0.56197938  0.91378964    -0.19600
C568        C  0.25186957  0.44038132  0.07414845    -0.19600
C569        C  0.25405680  0.41799930  0.05061914    -0.19600
C570        C  0.25518228  0.58461975  0.99627336    -0.15000
C571        C  0.24966897  0.49842059  0.07590537    -0.15000
C572        C  0.25656778  0.41815572  0.99096471    -0.15000
C573        C  0.26277697  0.50403840  0.91147460    -0.15000
H574        H  0.24631093  0.60503079  0.06110475     0.18000
H575        H  0.24358361  0.55954205  0.10321707     0.18000
H576        H  0.25262396  0.44368783  0.88380156     0.18000
H577        H  0.24990223  0.39822193  0.92585917     0.18000
H578        H  0.26780937  0.60926580  0.93367270     0.16200
H579        H  0.27243625  0.56632920  0.88873074     0.16200
H580        H  0.25078301  0.43581767  0.09957177     0.16200
H581        H  0.25485789  0.39317806  0.05454486     0.16200
H582        H  0.25556200  0.51903070  0.01174805     0.29500
H583        H  0.26680024  0.48282636  0.97570467     0.29500
Zn584      Zn  0.28048435  0.25197664  0.97846568     1.49700
Zn585      Zn  0.23092785  0.25909572  0.02433431     1.49400
Zn586      Zn  0.22269547  0.19873123  0.97696279     1.49100
Zn587      Zn  0.27286935  0.19188706  0.02609490     1.49500
O588        O  0.25100556  0.22492865  0.00142949    -1.80800
O589        O  0.27570873  0.30176379  0.97819738    -0.71400
O590        O  0.18537572  0.25079130  0.02376375    -0.71200
O591        O  0.23988485  0.20065595  0.93284862    -0.70800
O592        O  0.23609947  0.30596444  0.01092158    -0.71400
O593        O  0.27882969  0.23557999  0.93452891    -0.71000
O594        O  0.18089728  0.21877316  0.98146753    -0.71600
O595        O  0.25313409  0.14438768  0.02500336    -0.71000
O596        O  0.25185204  0.25716141  0.06602345    -0.71800
O597        O  0.21696938  0.15092065  0.98829086    -0.71200
O598        O  0.27691880  0.21139346  0.06973442    -0.71600
O599        O  0.31904032  0.19290590  0.01354500    -0.71500
O600        O  0.32285247  0.24134998  0.99447551    -0.71300
C601        C  0.25616464  0.31906819  0.99300507     0.80500
C602        C  0.16924862  0.23664788  0.00269801     0.81000
C603        C  0.26240194  0.21536892  0.92008720     0.79900
C604        C  0.23100478  0.13278811  0.00773931     0.80300
C605        C  0.27003087  0.23843113  0.08022935     0.81400
C606        C  0.33511945  0.21665289  0.00539412     0.80500
N607        N  0.53739287  0.24235903  0.97413842    -0.33300
N608        N  0.53628189  0.24701291  0.04675893    -0.53800
N609        N  0.47122576  0.24989295  0.04621866    -0.33300
N610        N  0.47230284  0.24037618  0.97407700    -0.53800
C611        C  0.56601865  0.23152212  0.98160229     0.30300
C612        C  0.53278698  0.23762353  0.94220400     0.30300
C613        C  0.47596359  0.25136337  0.07848002     0.30300
C614        C  0.44247667  0.23802335  0.04106468     0.30300
C615        C  0.56702136  0.24362709  0.04109465     0.38900
C616        C  0.53315458  0.25678645  0.07756184     0.38900
C617        C  0.47561569  0.24334946  0.94184439     0.38900
C618        C  0.44152257  0.23836916  0.98022262     0.38900
C619        C  0.58022768  0.22086888  0.95372484    -0.18600
C620        C  0.55948579  0.22513406  0.92893698    -0.18600
C621        C  0.44928197  0.24160691  0.09401337    -0.18500
C622        C  0.42837637  0.23282981  0.07055122    -0.18500
C623        C  0.58359315  0.25111265  0.06861417    -0.19600
C624        C  0.56221811  0.25982905  0.09148802    -0.19600
C625        C  0.44664178  0.24346653  0.92742485    -0.19600
C626        C  0.42513484  0.23992034  0.95156548    -0.19600
C627        C  0.58046589  0.23213896  0.01233001    -0.15000
C628        C  0.50446393  0.24228550  0.92521198    -0.15000
C629        C  0.42784640  0.23310459  0.01077493    -0.15000
C630        C  0.50436894  0.25945243  0.09409356    -0.15000
H631        H  0.60328680  0.21103676  0.95136076     0.18000
H632        H  0.56316880  0.21849590  0.90423666     0.18000
H633        H  0.44568854  0.23978196  0.11956859     0.18000
H634        H  0.40527936  0.22371323  0.07481440     0.18000
H635        H  0.60855717  0.25027871  0.07192537     0.16200
H636        H  0.56743749  0.26637877  0.11592006     0.16200
H637        H  0.44156267  0.24461535  0.90209292     0.16200
H638        H  0.40019799  0.23840831  0.94830063     0.16200
H639        H  0.52290499  0.25434620  0.98970670     0.29500
H640        H  0.48570383  0.25871967  0.02857269     0.29500
Zn641      Zn  0.47021623  0.71277079  0.70165715     1.49700
Zn642      Zn  0.47045108  0.77030600  0.75322142     1.49400
Zn643      Zn  0.52164289  0.72181723  0.75684468     1.49100
Zn644      Zn  0.51509472  0.76531691  0.69129151     1.49500
O645        O  0.49469636  0.74252809  0.72605633    -1.80800
O646        O  0.42721085  0.72893290  0.70105244    -0.71400
O647        O  0.47565795  0.76480995  0.80261337    -0.71200
O648        O  0.51065938  0.67670680  0.75819909    -0.70800
O649        O  0.42642790  0.76576360  0.73902984    -0.71400
O650        O  0.47103299  0.67208114  0.72396358    -0.71000
O651        O  0.51867616  0.73665464  0.80386834    -0.71600
O652        O  0.55974729  0.75837789  0.69800984    -0.71000
O653        O  0.48226112  0.81419352  0.74291321    -0.71800
O654        O  0.56477554  0.72733110  0.74071351    -0.71200
O655        O  0.50792154  0.81172539  0.69652780    -0.71600
O656        O  0.50745126  0.74942353  0.64474774    -0.71500
O657        O  0.48304282  0.70532389  0.65465584    -0.71300
C658        C  0.41328980  0.74963708  0.71732061     0.80500
C659        C  0.49765526  0.75206231  0.81843759     0.81000
C660        C  0.48927441  0.66090039  0.74489523     0.79900
C661        C  0.57604123  0.74281443  0.71752877     0.80300
C662        C  0.49588029  0.82718068  0.71947315     0.81400
C663        C  0.49632927  0.72356548  0.63498438     0.80500
Zn664      Zn  0.29640785  0.51871921  0.74596547     1.49700
Zn665      Zn  0.29447378  0.46729195  0.69385657     1.49400
Zn666      Zn  0.23623970  0.47629981  0.75039407     1.49100
Zn667      Zn  0.23749079  0.51622384  0.68851277     1.49500
O668        O  0.26614116  0.49473714  0.71908130    -1.80800
O669        O  0.34434519  0.51345499  0.73457986    -0.71400
O670        O  0.28507260  0.42479076  0.71210789    -0.71200
O671        O  0.24412657  0.48909965  0.79727602    -0.70800
O672        O  0.34253028  0.47517988  0.69938612    -0.71400
O673        O  0.28971717  0.51314467  0.79533794    -0.71000
O674        O  0.24742669  0.43178208  0.74904333    -0.71600
O675        O  0.18813449  0.50882382  0.69627072    -0.71000
O676        O  0.28805675  0.47213055  0.64458434    -0.71800
O677        O  0.18834287  0.48246497  0.74163251    -0.71200
O678        O  0.25203590  0.50909778  0.64046524    -0.71600
O679        O  0.24503403  0.56078336  0.70020066    -0.71500
O680        O  0.28353097  0.56190904  0.73684154    -0.71300
C681        C  0.35845649  0.49466055  0.71569546     0.80500
C682        C  0.26699810  0.41488426  0.73419295     0.81000
C683        C  0.26691501  0.50217819  0.81145993     0.79900
C684        C  0.17306874  0.49593501  0.71935364     0.80300
C685        C  0.27217758  0.49095926  0.62742482     0.81400
C686        C  0.26310645  0.57509653  0.71948217     0.80500
Zn687      Zn  0.52536332  0.28540691  0.71021791     1.49700
Zn688      Zn  0.47237301  0.27109384  0.76375421     1.49400
Zn689      Zn  0.48121406  0.23289764  0.69471768     1.49100
Zn690      Zn  0.52336544  0.22426811  0.75745960     1.49500
O691        O  0.50040412  0.25406924  0.73153895    -1.80800
O692        O  0.51848177  0.32541092  0.73349984    -0.71400
O693        O  0.43052268  0.25410911  0.75281285    -0.71200
O694        O  0.48639416  0.25385612  0.64948770    -0.70800
O695        O  0.47438292  0.31737282  0.76090194    -0.71400
O696        O  0.51600277  0.29395736  0.66213601    -0.71000
O697        O  0.43658005  0.23067189  0.70520293    -0.71600
O698        O  0.51011241  0.18143029  0.74472755    -0.71000
O699        O  0.48165598  0.26112554  0.81146430    -0.71800
O700        O  0.49343290  0.18743201  0.69446751    -0.71200
O701        O  0.52121096  0.22876043  0.80737465    -0.71600
O702        O  0.56684310  0.22778627  0.74309147    -0.71500
O703        O  0.56923430  0.27024073  0.71223486    -0.71300
C704        C  0.49575187  0.33509111  0.75036037     0.80500
C705        C  0.42018022  0.23851222  0.72914626     0.81000
C706        C  0.50070402  0.27865248  0.64124281     0.79900
C707        C  0.50116081  0.17030654  0.71803116     0.80300
C708        C  0.50230618  0.24427084  0.82474325     0.81400
C709        C  0.58157011  0.24650001  0.72519304     0.80500
Zn710      Zn  0.52542956  0.30967639  0.25676219     1.49700
Zn711      Zn  0.52349434  0.25168417  0.31632698     1.49400
Zn712      Zn  0.47632394  0.30958372  0.31168076     1.49100
Zn713      Zn  0.48157311  0.24904041  0.25725443     1.49500
O714        O  0.50211200  0.28034088  0.28546437    -1.80800
O715        O  0.56945290  0.29877759  0.26853764    -0.71400
O716        O  0.51630336  0.26487351  0.36420742    -0.71200
O717        O  0.48167150  0.35750276  0.30331254    -0.70800
O718        O  0.56745198  0.26129318  0.30622020    -0.71400
O719        O  0.51822115  0.35874837  0.26614547    -0.71000
O720        O  0.48413580  0.30503581  0.35997544    -0.71600
O721        O  0.43745823  0.25663151  0.26672681    -0.71000
O722        O  0.51743004  0.20207687  0.30945309    -0.71800
O723        O  0.43283625  0.29598981  0.30209412    -0.71200
O724        O  0.48963233  0.20142867  0.26514782    -0.71600
O725        O  0.48918185  0.25629821  0.20935108    -0.71500
O726        O  0.51905769  0.29838037  0.20732640    -0.71300
C727        C  0.58225990  0.27950826  0.28767514     0.80500
C728        C  0.50050838  0.28682963  0.37710823     0.81000
C729        C  0.49989575  0.37326796  0.28543883     0.79900
C730        C  0.42143363  0.27476516  0.28424942     0.80300
C731        C  0.50384722  0.18653690  0.28712799     0.81400
C732        C  0.50439258  0.27621811  0.19313896     0.80500
Zn733      Zn  0.72206040  0.47152540  0.24874559     1.49700
Zn734      Zn  0.76483863  0.48554418  0.31453304     1.49400
Zn735      Zn  0.76717742  0.52392778  0.24715085     1.49100
Zn736      Zn  0.71061797  0.52804901  0.29988267     1.49500
O737        O  0.74101973  0.50196261  0.27783861    -1.80800
O738        O  0.73346658  0.43036482  0.26623171    -0.71400
O739        O  0.81111922  0.49615063  0.30808448    -0.71200
O740        O  0.76146913  0.51541861  0.19863621    -0.70800
O741        O  0.76247473  0.43979200  0.30986060    -0.71400
O742        O  0.73179421  0.47381974  0.19984853    -0.71000
O743        O  0.81150607  0.51691114  0.25901362    -0.71600
O744        O  0.72050269  0.57199820  0.28953072    -0.71000
O745        O  0.74647364  0.49443554  0.36090907    -0.71800
O746        O  0.75745518  0.56790300  0.25198258    -0.71200
O747        O  0.70430128  0.52140053  0.34906210    -0.71600
O748        O  0.67042338  0.52040095  0.27903995    -0.71500
O749        O  0.67646525  0.47771815  0.24920096    -0.71300
C750        C  0.74956804  0.42143451  0.29006837     0.80500
C751        C  0.82556763  0.50662769  0.28358064     0.81000
C752        C  0.74666411  0.49417510  0.18387685     0.79900
C753        C  0.73876517  0.58369259  0.26885948     0.80300
C754        C  0.72114442  0.50762332  0.36981887     0.81400
C755        C  0.66002352  0.49971501  0.26026010     0.80500
Zn756      Zn  0.48562513  0.76291847  0.25007904     1.49700
Zn757      Zn  0.47408142  0.70336730  0.30492021     1.49400
Zn758      Zn  0.52627887  0.70094171  0.25272967     1.49100
Zn759      Zn  0.52273629  0.75938995  0.31159449     1.49500
O760        O  0.50233366  0.73080640  0.28000926    -1.80800
O761        O  0.44093139  0.75933157  0.25789166    -0.71400
O762        O  0.47814831  0.65468836  0.29665488    -0.71200
O763        O  0.51888535  0.70869478  0.20273692    -0.70800
O764        O  0.43179296  0.72168943  0.29421364    -0.71400
O765        O  0.49441647  0.75414054  0.20240687    -0.71000
O766        O  0.52004084  0.65210342  0.26588751    -0.71600
O767        O  0.56633588  0.75585759  0.29682203    -0.71000
O768        O  0.48235855  0.70659608  0.35361326    -0.71800
O769        O  0.56991423  0.71713142  0.26042403    -0.71200
O770        O  0.51877574  0.74290029  0.35885325    -0.71600
O771        O  0.51276294  0.80842411  0.30821912    -0.71500
O772        O  0.49486212  0.81011676  0.25882246    -0.71300
C773        C  0.42288905  0.74368839  0.27573336     0.80500
C774        C  0.49902182  0.63819390  0.28271008     0.81000
C775        C  0.50721192  0.73175326  0.18730158     0.79900
C776        C  0.58154686  0.73948910  0.27678663     0.80300
C777        C  0.50122753  0.72197299  0.37114214     0.81400
C778        C  0.50368501  0.82443710  0.28402597     0.80500
Zn779      Zn  0.22564129  0.52259181  0.23928084     1.49700
Zn780      Zn  0.28258776  0.52928725  0.29202143     1.49400
Zn781      Zn  0.22943609  0.48477302  0.30653891     1.49100
Zn782      Zn  0.27328181  0.47240831  0.24081002     1.49500
O783        O  0.25303510  0.50206621  0.27003568    -1.80800
O784        O  0.23441362  0.56670354  0.24211053    -0.71400
O785        O  0.28559772  0.52686718  0.34208870    -0.71200
O786        O  0.18282794  0.49288296  0.29945658    -0.70800
O787        O  0.27402295  0.57193130  0.27660018    -0.71400
O788        O  0.18166594  0.51387192  0.25058107    -0.71000
O789        O  0.24607075  0.49589159  0.35322118    -0.71600
O790        O  0.26120686  0.43089348  0.25714394    -0.71000
O791        O  0.32435505  0.51975353  0.27512347    -0.71800
O792        O  0.23334481  0.43903033  0.30184604    -0.71200
O793        O  0.31910204  0.47829711  0.24340284    -0.71600
O794        O  0.26458458  0.47563600  0.19163886    -0.71500
O795        O  0.23118901  0.51428067  0.19115419    -0.71300
C796        C  0.25497152  0.58273707  0.25617522     0.80500
C797        C  0.26932668  0.51219721  0.36270586     0.81000
C798        C  0.16801813  0.50263039  0.27489920     0.79900
C799        C  0.24571786  0.42125221  0.28113252     0.80300
C800        C  0.33550312  0.49924267  0.25657824     0.81400
C801        C  0.24782035  0.49478832  0.17606631     0.80500
N802        N  0.46227969  0.96659297  0.73322190    -0.33300
N803        N  0.53444877  0.96676739  0.72992121    -0.53800
N804        N  0.53416538  0.03169230  0.72947913    -0.33300
N805        N  0.46193229  0.03141192  0.72768925    -0.53800
C806        C  0.46864861  0.93660826  0.72598525     0.30300
C807        C  0.43079813  0.97090477  0.73054120     0.30300
C808        C  0.56553658  0.02712932  0.72618488     0.30300
C809        C  0.52758251  0.06089798  0.71976427     0.30300
C810        C  0.52808004  0.93606987  0.73182239     0.38900
C811        C  0.56569415  0.97035385  0.73460166     0.38900
C812        C  0.43080805  0.02828824  0.73340131     0.38900
C813        C  0.46836834  0.06215260  0.72719808     0.38900
C814        C  0.44068303  0.92147393  0.71944624    -0.18600
C815        C  0.41700669  0.94292328  0.72258479    -0.18600
C816        C  0.57904239  0.05416773  0.71504857    -0.18500
C817        C  0.55527658  0.07528778  0.71077860    -0.18500
C818        C  0.55566953  0.92001424  0.73737878    -0.19600
C819        C  0.57927388  0.94163939  0.73932692    -0.19600
C820        C  0.41734170  0.05731711  0.73612810    -0.19600
C821        C  0.44091682  0.07866254  0.73209675    -0.19600
C822        C  0.49845634  0.92172542  0.72676664    -0.15000
C823        C  0.41429315  0.99953807  0.73432669    -0.15000
C824        C  0.49796655  0.07601607  0.72086517    -0.15000
C825        C  0.58218172  0.99906032  0.73240916    -0.15000
H826        H  0.43750835  0.89727293  0.71320496     0.18000
H827        H  0.39249571  0.93852989  0.71871027     0.18000
H828        H  0.60340847  0.05812014  0.70993498     0.18000
H829        H  0.55820492  0.09880786  0.70220914     0.18000
H830        H  0.55858270  0.89515276  0.73967622     0.16200
H831        H  0.60368674  0.93670375  0.74311276     0.16200
H832        H  0.39303551  0.06259858  0.74015320     0.16200
H833        H  0.43806673  0.10363183  0.73263640     0.16200
H834        H  0.47859368  0.98208933  0.74217582     0.29500
H835        H  0.51822928  0.01724638  0.74067631     0.29500
Zn836      Zn  0.25141543  0.96813558  0.73548231     1.49700
Zn837      Zn  0.25383366  0.02987121  0.76549203     1.49400
Zn838      Zn  0.18738507  0.01045371  0.72624291     1.49100
Zn839      Zn  0.19776960  0.98233665  0.79066097     1.49500
O840        O  0.22240279  0.99817903  0.75454335    -1.80800
O841        O  0.30018157  0.97435937  0.73869312    -0.71400
O842        O  0.23734056  0.06870344  0.74572682    -0.71200
O843        O  0.19559146  0.99069947  0.68268003    -0.70800
O844        O  0.30107619  0.02378117  0.75190117    -0.71400
O845        O  0.24165320  0.96714586  0.68909419    -0.71000
O846        O  0.19345672  0.05614609  0.71939246    -0.71600
O847        O  0.14934507  0.99112896  0.79340456    -0.71000
O848        O  0.25533495  0.03200658  0.81353038    -0.71800
O849        O  0.14038667  0.00384845  0.74319382    -0.71200
O850        O  0.21954545  0.99741785  0.82948472    -0.71600
O851        O  0.20166127  0.93632914  0.78912463    -0.71500
O852        O  0.23915996  0.92748643  0.75296740    -0.71300
C853        C  0.31575466  0.99918922  0.74369646     0.80500
C854        C  0.21408247  0.07564679  0.72815055     0.81000
C855        C  0.21917552  0.97608856  0.67164946     0.79900
C856        C  0.12987076  0.99761812  0.77125167     0.80300
C857        C  0.24144295  0.01654948  0.83519380     0.81400
C858        C  0.21889781  0.91820370  0.77293251     0.80500
N859        N  0.23779912  0.04269684  0.47738627    -0.33300
N860        N  0.24708535  0.97874797  0.45888397    -0.53800
N861        N  0.25370247  0.96176764  0.52483227    -0.33300
N862        N  0.24162409  0.02569016  0.54302970    -0.53800
C863        C  0.22496774  0.04331638  0.44790253     0.30300
C864        C  0.23051748  0.06968451  0.49190749     0.30300
C865        C  0.25440992  0.93361834  0.51055481     0.30300
C866        C  0.24303345  0.95761718  0.55500505     0.30300
C867        C  0.24410344  0.99179072  0.42977129     0.38900
C868        C  0.26011028  0.95059534  0.45429900     0.38900
C869        C  0.24569061  0.05646674  0.54698363     0.38900
C870        C  0.24458991  0.01281076  0.57211029     0.38900
C871        C  0.20937451  0.07123189  0.44360148    -0.18600
C872        C  0.21325665  0.08811823  0.47136248    -0.18600
C873        C  0.24526199  0.91106718  0.53229693    -0.18500
C874        C  0.23773010  0.92628354  0.56025277    -0.18500
C875        C  0.25512424  0.97168815  0.40638334    -0.19600
C876        C  0.26555860  0.94563432  0.42200356    -0.19600
C877        C  0.25136235  0.06338241  0.57884309    -0.19600
C878        C  0.25011309  0.03560255  0.59496051    -0.19600
C879        C  0.22949636  0.02056508  0.42407418    -0.15000
C880        C  0.24037685  0.07825960  0.52274226    -0.15000
C881        C  0.23963249  0.98115972  0.57831926    -0.15000
C882        C  0.26284597  0.92797556  0.47836981    -0.15000
H883        H  0.19719444  0.07895492  0.42239703     0.18000
H884        H  0.20423170  0.11115658  0.47602087     0.18000
H885        H  0.24341337  0.88631526  0.52827458     0.18000
H886        H  0.22959267  0.91546157  0.58204919     0.18000
H887        H  0.25531348  0.97524998  0.38076144     0.16200
H888        H  0.27481940  0.92492718  0.41078763     0.16200
H889        H  0.25446862  0.08610278  0.58951091     0.16200
H890        H  0.25276342  0.03253043  0.62051080     0.16200
H891        H  0.25395730  0.02677743  0.48587850     0.29500
H892        H  0.26262504  0.98210499  0.51515185     0.29500
Zn893      Zn  0.26020490  0.97290791  0.23465901     1.49700
Zn894      Zn  0.25468586  0.03169321  0.26983789     1.49400
Zn895      Zn  0.20211253  0.01994548  0.21127630     1.49100
Zn896      Zn  0.19064577  0.98690078  0.27243105     1.49500
O897        O  0.22675391  0.00257659  0.24706497    -1.80800
O898        O  0.30809959  0.98059085  0.24705759    -0.71400
O899        O  0.24800796  0.07153833  0.24813446    -0.71200
O900        O  0.22161102  0.00302178  0.17245314    -0.70800
O901        O  0.30405730  0.02543593  0.27158757    -0.71400
O902        O  0.26007639  0.97075164  0.18667512    -0.71000
O903        O  0.21190282  0.06503523  0.20991167    -0.71600
O904        O  0.14361528  0.99100067  0.25384503    -0.71000
O905        O  0.23880225  0.03408427  0.31471670    -0.71800
O906        O  0.15292113  0.01363638  0.20774418    -0.71200
O907        O  0.19461026  0.00635255  0.31653068    -0.71600
O908        O  0.19998760  0.94166528  0.27837475    -0.71500
O909        O  0.24586633  0.93310923  0.25390566    -0.71300
C910        C  0.32134908  0.00343437  0.26122443     0.80500
C911        C  0.23129663  0.08160022  0.22534163     0.81000
C912        C  0.24400979  0.98493005  0.16571176     0.79900
C913        C  0.13326508  0.00185970  0.22726460     0.80300
C914        C  0.21542607  0.02325462  0.32973816     0.81400
C915        C  0.22251324  0.92407475  0.27026313     0.80500
N916        N  0.46796536  0.97089993  0.27729780    -0.33300
N917        N  0.46827626  0.04034564  0.27620616    -0.53800
N918        N  0.53821090  0.03970848  0.27821574    -0.33300
N919        N  0.53775925  0.97032866  0.27812121    -0.53800
C920        C  0.43669491  0.97621325  0.27359729     0.30300
C921        C  0.47318196  0.93948659  0.27784590     0.30300
C922        C  0.53313375  0.07112947  0.27898337     0.30300
C923        C  0.56960419  0.03419957  0.27622862     0.30300
C924        C  0.43675566  0.03550080  0.27447560     0.38900
C925        C  0.47360551  0.07166703  0.27866765     0.38900
C926        C  0.53248479  0.93910522  0.28087898     0.38900
C927        C  0.56926267  0.97503924  0.27788331     0.38900
C928        C  0.42198160  0.94753751  0.27194485    -0.18600
C929        C  0.44461336  0.92474936  0.27473717    -0.18600
C930        C  0.56195562  0.08568747  0.27767609    -0.18500
C931        C  0.58457997  0.06275840  0.27576811    -0.18500
C932        C  0.42210645  0.06419293  0.27557162    -0.19600
C933        C  0.44503438  0.08669937  0.27836319    -0.19600
C934        C  0.56099131  0.92406390  0.28253744    -0.19600
C935        C  0.58392851  0.94646068  0.28048422    -0.19600
C936        C  0.42063586  0.00586793  0.27219469    -0.15000
C937        C  0.50271617  0.92340209  0.28093038    -0.15000
C938        C  0.58544638  0.00440339  0.27544974    -0.15000
C939        C  0.50352484  0.08735831  0.28062081    -0.15000
H940        H  0.39730720  0.94330600  0.26917289     0.18000
H941        H  0.44039148  0.89997553  0.27429049     0.18000
H942        H  0.56636887  0.11043158  0.27782465     0.18000
H943        H  0.60940320  0.06678940  0.27448604     0.18000
H944        H  0.39732311  0.06855280  0.27473093     0.16200
H945        H  0.44101323  0.11147372  0.27979454     0.16200
H946        H  0.56498516  0.89934326  0.28468591     0.16200
H947        H  0.60871729  0.94209146  0.28107319     0.16200
H948        H  0.48473791  0.98768309  0.28020945     0.29500
H949        H  0.52117808  0.02301739  0.27949033     0.29500
Zn950      Zn  0.75073336  0.02871024  0.27314110     1.49700
Zn951      Zn  0.81505986  0.98530629  0.27128492     1.49400
Zn952      Zn  0.74465076  0.97085868  0.23659378     1.49100
Zn953      Zn  0.80013843  0.02024763  0.21128422     1.49500
O954        O  0.77791758  0.00112968  0.24775204    -1.80800
O955        O  0.76830317  0.02990462  0.31729636    -0.71400
O956        O  0.80611361  0.94023465  0.27878513    -0.71200
O957        O  0.69706486  0.97895665  0.24893915    -0.70800
O958        O  0.81367227  0.00426122  0.31547890    -0.71400
O959        O  0.70183917  0.02214611  0.27632441    -0.71000
O960        O  0.75875199  0.93182887  0.25757040    -0.71600
O961        O  0.78028092  0.00148533  0.17312313    -0.71000
O962        O  0.86080659  0.99010409  0.25069064    -0.71800
O963        O  0.74457843  0.96671502  0.18880918    -0.71200
O964        O  0.84983901  0.01586098  0.20668283    -0.71600
O965        O  0.78762916  0.06522889  0.21104306    -0.71500
O966        O  0.75528762  0.06923592  0.25296639    -0.71300
C967        C  0.79294491  0.01969148  0.33048767     0.80500
C968        C  0.78271783  0.92292334  0.27301286     0.81000
C969        C  0.68428549  0.00100858  0.26471748     0.79900
C970        C  0.75923503  0.98150216  0.16721090     0.80300
C971        C  0.87020703  0.00296336  0.22474263     0.81400
C972        C  0.76927155  0.08063477  0.22900448     0.80500
N973        N  0.77002969  0.03190344  0.47772482    -0.33300
N974        N  0.77405266  0.96661811  0.45910830    -0.53800
N975        N  0.76756510  0.94892062  0.52439140    -0.33300
N976        N  0.76644640  0.01424745  0.54296942    -0.53800
C977        C  0.78329874  0.03466824  0.44858057     0.30300
C978        C  0.77183929  0.05994088  0.49218676     0.30300
C979        C  0.77243223  0.92101783  0.51055060     0.30300
C980        C  0.77669637  0.94659271  0.55519920     0.30300
C981        C  0.77513773  0.98016858  0.43012514     0.38900
C982        C  0.76637548  0.93657346  0.45414003     0.38900
C983        C  0.75711552  0.04395695  0.54670671     0.38900
C984        C  0.76383142  0.00060315  0.57176529     0.38900
C985        C  0.79345609  0.06499461  0.44434099    -0.18600
C986        C  0.78591295  0.08105490  0.47180727    -0.18600
C987        C  0.78391320  0.90030933  0.53300885    -0.18500
C988        C  0.78699720  0.91661614  0.56118194    -0.18500
C989        C  0.76855908  0.95844309  0.40644765    -0.19600
C990        C  0.76267340  0.93082436  0.42175782    -0.19600
C991        C  0.74831512  0.04932651  0.57810585    -0.19600
C992        C  0.75295698  0.02186573  0.59414387    -0.19600
C993        C  0.78378273  0.01135502  0.42480769    -0.15000
C994        C  0.76032445  0.06683021  0.52299391    -0.15000
C995        C  0.77375117  0.97011242  0.57844878    -0.15000
C996        C  0.76620694  0.91389052  0.47829829    -0.15000
H997        H  0.80452849  0.07471057  0.42336996     0.18000
H998        H  0.79051809  0.10538042  0.47636461     0.18000
H999        H  0.78992979  0.87615229  0.52935641     0.18000
H1000       H  0.79527612  0.90728948  0.58365071     0.18000
H1001       H  0.76813612  0.96205678  0.38083715     0.16200
H1002       H  0.75737396  0.90886160  0.41034347     0.16200
H1003       H  0.74067684  0.07102281  0.58860805     0.16200
H1004       H  0.74900934  0.01807567  0.61939218     0.16200
H1005       H  0.75708743  0.01312817  0.48584417     0.29500
H1006       H  0.75562336  0.96734011  0.51410414     0.29500
Zn1007     Zn  0.80186985  0.03003400  0.77355057     1.49700
Zn1008     Zn  0.74815783  0.01418502  0.71739872     1.49400
Zn1009     Zn  0.80687303  0.96810737  0.74047712     1.49100
Zn1010     Zn  0.73990767  0.98330122  0.77911786     1.49500
O1011       O  0.77456199  0.99904770  0.75273280    -1.80800
O1012       O  0.79565032  0.06936586  0.74826058    -0.71400
O1013       O  0.76213604  0.99089678  0.67938500    -0.71200
O1014       O  0.85414949  0.97488998  0.75519594    -0.70800
O1015       O  0.75984319  0.05842316  0.71075189    -0.71400
O1016       O  0.85050425  0.02066561  0.77841926    -0.71000
O1017       O  0.80401263  0.96253255  0.69231764    -0.71600
O1018       O  0.74655261  0.93838299  0.78321279    -0.71000
O1019       O  0.69865583  0.01095065  0.71930687    -0.71800
O1020       O  0.79210053  0.92835418  0.75918232    -0.71200
O1021       O  0.69297113  0.98891382  0.76621692    -0.71600
O1022       O  0.74567584  0.00104111  0.82165446    -0.71500
O1023       O  0.78574513  0.03426646  0.81858703    -0.71300
C1024       C  0.77870683  0.07696500  0.72441945     0.80500
C1025       C  0.78403549  0.97235709  0.67213463     0.81000
C1026       C  0.86723860  0.99733977  0.77025219     0.79900
C1027       C  0.76791880  0.91994445  0.77443348     0.80300
C1028       C  0.68070751  0.00007018  0.74096631     0.81400
C1029       C  0.76437580  0.02034156  0.83411633     0.80500
Zn1030     Zn  0.72808434  0.75906856  0.46982214     1.49700
Zn1031     Zn  0.72896036  0.72822041  0.53782238     1.49400
Zn1032     Zn  0.77318947  0.70359861  0.48727453     1.49100
Zn1033     Zn  0.78717089  0.76804003  0.50897070     1.49500
O1034       O  0.75313614  0.74024668  0.50181529    -1.80800
O1035       O  0.68294976  0.75083375  0.47846868    -0.71400
O1036       O  0.72683260  0.68046739  0.54228544    -0.71200
O1037       O  0.77928792  0.70728424  0.44156904    -0.70800
O1038       O  0.68438946  0.74135079  0.53098324    -0.71400
O1039       O  0.74402579  0.74320736  0.42831747    -0.71000
O1040       O  0.74953154  0.66612594  0.49678760    -0.71600
O1041       O  0.82785618  0.74841216  0.49851326    -0.71000
O1042       O  0.74830910  0.75052861  0.57510324    -0.71800
O1043       O  0.81574434  0.69861354  0.50422248    -0.71200
O1044       O  0.78782638  0.77811416  0.55461326    -0.71600
O1045       O  0.78262827  0.80868047  0.48678283    -0.71500
O1046       O  0.73424264  0.80554960  0.46842391    -0.71300
C1047       C  0.66943604  0.74657917  0.50522283     0.80500
C1048       C  0.73388996  0.65978288  0.52154537     0.81000
C1049       C  0.76592379  0.72446139  0.42136038     0.79900
C1050       C  0.83561977  0.72008781  0.50115154     0.80300
C1051       C  0.77099672  0.76955087  0.57782833     0.81400
C1052       C  0.75878302  0.82104139  0.47427281     0.80500
Zn1053     Zn  0.72179664  0.27266299  0.52750012     1.49700
Zn1054     Zn  0.77053644  0.26631778  0.47420083     1.49400
Zn1055     Zn  0.77591942  0.22226095  0.53220195     1.49100
Zn1056     Zn  0.72095806  0.21077868  0.48679899     1.49500
O1057       O  0.74659654  0.24298878  0.50493123    -1.80800
O1058       O  0.72161666  0.31444149  0.50707490    -0.71400
O1059       O  0.81520154  0.26750961  0.48678901    -0.71200
O1060       O  0.78010237  0.24699620  0.57131187    -0.70800
O1061       O  0.75650078  0.31132136  0.46811809    -0.71400
O1062       O  0.74116802  0.28123923  0.56955287    -0.71000
O1063       O  0.81808624  0.22344502  0.51419717    -0.71600
O1064       O  0.72726042  0.16926194  0.50773208    -0.71000
O1065       O  0.77016058  0.24128411  0.43445032    -0.71800
O1066       O  0.76676729  0.17730255  0.54093299    -0.71200
O1067       O  0.73541753  0.20332598  0.44220940    -0.71600
O1068       O  0.67574361  0.22270443  0.49042753    -0.71500
O1069       O  0.67758324  0.25869500  0.52907573    -0.71300
C1070       C  0.73703192  0.32684017  0.48464965     0.80500
C1071       C  0.83076596  0.24606100  0.50001012     0.81000
C1072       C  0.76543109  0.27010754  0.58248290     0.79900
C1073       C  0.74708279  0.15936780  0.52779384     0.80300
C1074       C  0.75623246  0.21666523  0.42559276     0.81400
C1075       C  0.66249324  0.24089222  0.51031057     0.80500
Zn1076     Zn  0.27791880  0.73982560  0.53330460     1.49700
Zn1077     Zn  0.22330367  0.72476319  0.49000013     1.49400
Zn1078     Zn  0.22785792  0.79042946  0.50845678     1.49100
Zn1079     Zn  0.28010120  0.76834144  0.46443970     1.49500
O1080       O  0.25392763  0.75593352  0.49897225    -1.80800
O1081       O  0.27748486  0.69199795  0.53273160    -0.71400
O1082       O  0.18034278  0.73593895  0.50381446    -0.71200
O1083       O  0.22315653  0.79237631  0.55459580    -0.70800
O1084       O  0.23549681  0.68247743  0.50342175    -0.71400
O1085       O  0.25757746  0.75743704  0.57279333    -0.71000
O1086       O  0.18504530  0.78564001  0.49111111    -0.71600
O1087       O  0.28066162  0.81534297  0.45818050    -0.71000
O1088       O  0.22039806  0.72218714  0.44404344    -0.71800
O1089       O  0.24488677  0.82998011  0.49340154    -0.71200
O1090       O  0.26197569  0.74814205  0.42580582    -0.71600
O1091       O  0.32439812  0.75649071  0.47398052    -0.71500
O1092       O  0.32291523  0.75205722  0.52724540    -0.71300
C1093       C  0.25882662  0.67307438  0.51913833     0.80500
C1094       C  0.16841100  0.76188203  0.49629388     0.81000
C1095       C  0.23599982  0.77747883  0.57704169     0.79900
C1096       C  0.26540254  0.83637204  0.47274749     0.80300
C1097       C  0.23747793  0.73190320  0.42163073     0.81400
C1098       C  0.33792516  0.75424234  0.50101447     0.80500
Zn1099     Zn  0.22057674  0.23262307  0.52053139     1.49700
Zn1100     Zn  0.27592972  0.28186838  0.52349777     1.49400
Zn1101     Zn  0.28011667  0.22044308  0.48220993     1.49100
Zn1102     Zn  0.23292374  0.27598798  0.46428534     1.49500
O1103       O  0.25333252  0.25298185  0.49757286    -1.80800
O1104       O  0.21486777  0.25343454  0.56144423    -0.71400
O1105       O  0.32129788  0.27058939  0.52416047    -0.71200
O1106       O  0.27262171  0.17981288  0.50424648    -0.70800
O1107       O  0.25697835  0.28332904  0.56677061    -0.71400
O1108       O  0.22793824  0.18816165  0.52936168    -0.71000
O1109       O  0.32465857  0.23189525  0.48864254    -0.71600
O1110       O  0.23671826  0.25086423  0.42458933    -0.71000
O1111       O  0.27252781  0.32510977  0.50641509    -0.71800
O1112       O  0.27014433  0.21274789  0.43652271    -0.71200
O1113       O  0.24849059  0.31998048  0.45961258    -0.71600
O1114       O  0.18764548  0.28037689  0.47426896    -0.71500
O1115       O  0.18007737  0.23590805  0.49975109    -0.71300
C1116       C  0.23158928  0.27213485  0.57721214     0.80500
C1117       C  0.33711540  0.25146004  0.50752779     0.81000
C1118       C  0.25001178  0.17043382  0.52119267     0.79900
C1119       C  0.25168108  0.22632100  0.41739420     0.80300
C1120       C  0.26188060  0.33660005  0.48070547     0.81400
C1121       C  0.16986781  0.26038377  0.48692274     0.80500
Zn1122     Zn  0.23141538  0.23574167  0.21209596     1.49700
Zn1123     Zn  0.22229501  0.26491041  0.27713698     1.49400
Zn1124     Zn  0.27762144  0.21804153  0.26277767     1.49100
Zn1125     Zn  0.27741024  0.28465902  0.23337578     1.49500
O1126       O  0.25247804  0.25111642  0.24750696    -1.80800
O1127       O  0.19107466  0.25487904  0.20627421    -0.71400
O1128       O  0.22505346  0.24006438  0.31667278    -0.71200
O1129       O  0.27141606  0.17938536  0.23694236    -0.70800
O1130       O  0.18020476  0.26327542  0.25765055    -0.71400
O1131       O  0.22587875  0.19103227  0.21458981    -0.71000
O1132       O  0.26508715  0.20832187  0.30719655    -0.71600
O1133       O  0.31670694  0.28260908  0.25658061    -0.71000
O1134       O  0.22977039  0.30921140  0.28794841    -0.71800
O1135       O  0.32158463  0.23192868  0.26649690    -0.71200
O1136       O  0.25824751  0.32438928  0.24611625    -0.71600
O1137       O  0.28791044  0.28154396  0.18654280    -0.71500
O1138       O  0.25596573  0.24253812  0.17486924    -0.71300
C1139       C  0.17230513  0.26170738  0.22841145     0.80500
C1140       C  0.24414139  0.21922891  0.32537717     0.81000
C1141       C  0.24663558  0.17166681  0.22230125     0.79900
C1142       C  0.33209143  0.25952315  0.26653029     0.80300
C1143       C  0.24256381  0.33017269  0.27119554     0.81400
C1144       C  0.27721150  0.26130244  0.16732689     0.80500
Zn1145     Zn  0.71939287  0.22622005  0.24218004     1.49700
Zn1146     Zn  0.76389702  0.28300471  0.23305423     1.49400
Zn1147     Zn  0.73908363  0.26803838  0.29855692     1.49100
Zn1148     Zn  0.78493209  0.22217089  0.26826818     1.49500
O1149       O  0.75207876  0.24995340  0.26020964    -1.80800
O1150       O  0.72021836  0.23300708  0.19592273    -0.71400
O1151       O  0.75389478  0.32348886  0.25326536    -0.71200
O1152       O  0.69374953  0.27363981  0.29755643    -0.70800
O1153       O  0.74700450  0.27686906  0.18940260    -0.71400
O1154       O  0.67878695  0.24038078  0.25952926    -0.71000
O1155       O  0.75690091  0.30978269  0.30457283    -0.71600
O1156       O  0.78461852  0.20748020  0.31373015    -0.71000
O1157       O  0.80933771  0.28198472  0.22700548    -0.71800
O1158       O  0.74970963  0.24054814  0.33364794    -0.71200
O1159       O  0.82454024  0.24107988  0.25574632    -0.71600
O1160       O  0.77930226  0.18565380  0.24089226    -0.71500
O1161       O  0.72788234  0.18074054  0.24468792    -0.71300
C1162       C  0.73247100  0.25352731  0.17836727     0.80500
C1163       C  0.75606475  0.33022120  0.28282164     0.81000
C1164       C  0.67288915  0.26072484  0.28076572     0.79900
C1165       C  0.76786288  0.21756031  0.33651092     0.80300
C1166       C  0.83018984  0.26396357  0.23759718     0.81400
C1167       C  0.75457526  0.17006843  0.23737197     0.80500
Zn1168     Zn  0.73279608  0.73537998  0.28340120     1.49700
Zn1169     Zn  0.75958399  0.72983028  0.21614936     1.49400
Zn1170     Zn  0.72887950  0.79128780  0.24118477     1.49100
Zn1171     Zn  0.79197073  0.76739243  0.27121408     1.49500
O1172       O  0.75375024  0.75664960  0.25166034    -1.80800
O1173       O  0.73942447  0.69116910  0.27866235    -0.71400
O1174       O  0.73928693  0.74854708  0.17864061    -0.71200
O1175       O  0.68348330  0.78272902  0.25014835    -0.70800
O1176       O  0.74533086  0.68673931  0.22589886    -0.71400
O1177       O  0.68827610  0.74100047  0.28093730    -0.71000
O1178       O  0.73442344  0.79788412  0.19474628    -0.71600
O1179       O  0.79213491  0.81234305  0.28159278    -0.71000
O1180       O  0.80474259  0.72802978  0.20444588    -0.71800
O1181       O  0.74554204  0.82818881  0.26424641    -0.71200
O1182       O  0.82618824  0.75823452  0.24179140    -0.71600
O1183       O  0.79791708  0.74338588  0.31135164    -0.71500
O1184       O  0.74818800  0.74683831  0.32502784    -0.71300
C1185       C  0.74119009  0.67504515  0.25346218     0.80500
C1186       C  0.73672627  0.77741954  0.17296758     0.81000
C1187       C  0.67180012  0.76061037  0.26632011     0.79900
C1188       C  0.77166922  0.83323917  0.27764154     0.80300
C1189       C  0.82803115  0.74175105  0.21671151     0.81400
C1190       C  0.77622218  0.74086145  0.33169112     0.80500
Zn1191     Zn  0.23919492  0.73209242  0.21211101     1.49700
Zn1192     Zn  0.21291115  0.76741318  0.27224352     1.49400
Zn1193     Zn  0.27291888  0.72886658  0.27721121     1.49100
Zn1194     Zn  0.27537613  0.79016903  0.23920160     1.49500
O1195       O  0.24994231  0.75511034  0.24997986    -1.80800
O1196       O  0.19421336  0.73554420  0.20248122    -0.71400
O1197       O  0.20815500  0.74605342  0.31374317    -0.71200
O1198       O  0.27074296  0.68631436  0.26348137    -0.70800
O1199       O  0.17614951  0.75855150  0.24639961    -0.71400
O1200       O  0.24778490  0.68723669  0.21590431    -0.71000
O1201       O  0.25619878  0.72787367  0.31983682    -0.71600
O1202       O  0.32006722  0.78346268  0.25192166    -0.71000
O1203       O  0.21291133  0.81271181  0.28052350    -0.71800
O1204       O  0.31638471  0.73944643  0.27938806    -0.71200
O1205       O  0.25811340  0.82807764  0.25964368    -0.71600
O1206       O  0.27367484  0.79659099  0.19205826    -0.71500
O1207       O  0.26011171  0.74937276  0.17490412    -0.71300
C1208       C  0.17214805  0.74641941  0.21912143     0.80500
C1209       C  0.22912747  0.73304673  0.33019450     0.81000
C1210       C  0.25995880  0.67287093  0.23910942     0.79900
C1211       C  0.33212959  0.76144027  0.26789090     0.80300
C1212       C  0.23268993  0.83361355  0.27407391     0.81400
C1213       C  0.26862812  0.77707053  0.16985500     0.80500
Zn1214     Zn  0.25963897  0.72903619  0.70867677     1.49700
Zn1215     Zn  0.27030968  0.78205084  0.75486115     1.49400
Zn1216     Zn  0.20530195  0.76852230  0.73536556     1.49100
Zn1217     Zn  0.23720820  0.71884781  0.77765455     1.49500
O1218       O  0.24324187  0.74863400  0.74478362    -1.80800
O1219       O  0.30504999  0.73563099  0.70588187    -0.71400
O1220       O  0.25018056  0.82294257  0.75066495    -0.71200
O1221       O  0.20354327  0.77903522  0.68921676    -0.70800
O1222       O  0.31055398  0.78009598  0.73243230    -0.71400
O1223       O  0.24128899  0.74798764  0.67119993    -0.71000
O1224       O  0.20177237  0.80762035  0.76010661    -0.71600
O1225       O  0.19161894  0.71479268  0.78783382    -0.71000
O1226       O  0.27897488  0.77975427  0.80036804    -0.71800
O1227       O  0.17055406  0.74255737  0.74840356    -0.71200
O1228       O  0.25837043  0.73471193  0.81653172    -0.71600
O1229       O  0.25156057  0.67685619  0.76280267    -0.71500
O1230       O  0.25259906  0.68421619  0.70995588    -0.71300
C1231       C  0.32148387  0.75817413  0.71561835     0.80500
C1232       C  0.22268067  0.82831293  0.76016029     0.81000
C1233       C  0.22036104  0.76823884  0.66688011     0.79900
C1234       C  0.16822259  0.72460867  0.77225302     0.80300
C1235       C  0.27240840  0.76022468  0.82185169     0.81400
C1236       C  0.25328994  0.66667043  0.73422252     0.80500
Zn1237     Zn  0.26905801  0.20480456  0.75911900     1.49700
Zn1238     Zn  0.24138605  0.26766969  0.78516744     1.49400
Zn1239     Zn  0.27381343  0.26463368  0.71906863     1.49100
Zn1240     Zn  0.21000397  0.23317679  0.72662405     1.49500
O1241       O  0.24828915  0.24244329  0.74777451    -1.80800
O1242       O  0.26765903  0.19943352  0.80580643    -0.71400
O1243       O  0.25360886  0.31205850  0.77834567    -0.71200
O1244       O  0.31625091  0.24882958  0.71827043    -0.70800
O1245       O  0.26328555  0.24881667  0.82168446    -0.71400
O1246       O  0.31388621  0.20593240  0.74772410    -0.71000
O1247       O  0.27620749  0.30837401  0.73070037    -0.71600
O1248       O  0.20567081  0.25726004  0.68660009    -0.71000
O1249       O  0.19643236  0.26769367  0.79710032    -0.71800
O1250       O  0.25582799  0.26569701  0.67644804    -0.71200
O1251       O  0.17557528  0.24388456  0.75487127    -0.71600
O1252       O  0.20599737  0.18796094  0.71636043    -0.71500
O1253       O  0.24869917  0.16868106  0.73904985    -0.71300
C1254       C  0.26807163  0.22023607  0.82727896     0.80500
C1255       C  0.26684071  0.32417524  0.75426223     0.81000
C1256       C  0.32894076  0.22571140  0.73151163     0.79900
C1257       C  0.22743690  0.26625700  0.66841535     0.80300
C1258       C  0.17323567  0.25709879  0.78184049     0.81400
C1259       C  0.22356976  0.16534201  0.72350866     0.80500
Zn1260     Zn  0.71979752  0.25991879  0.77453393     1.49700
Zn1261     Zn  0.78035967  0.28146587  0.74013161     1.49400
Zn1262     Zn  0.77750382  0.21542817  0.77079558     1.49100
Zn1263     Zn  0.73883522  0.22779053  0.70949906     1.49500
O1264       O  0.75395871  0.24604758  0.74852341    -1.80800
O1265       O  0.71561979  0.30631669  0.77497014    -0.71400
O1266       O  0.81968074  0.27997213  0.76446225    -0.71200
O1267       O  0.75752389  0.20432046  0.81141654    -0.70800
O1268       O  0.75837906  0.32043437  0.74895166    -0.71400
O1269       O  0.72254204  0.24202815  0.81809760    -0.71000
O1270       O  0.81896460  0.23128091  0.78222156    -0.71600
O1271       O  0.75320983  0.18385552  0.70293129    -0.71000
O1272       O  0.79017083  0.28532878  0.69420957    -0.71800
O1273       O  0.78301217  0.17711355  0.74580256    -0.71200
O1274       O  0.75463285  0.25285255  0.67433813    -0.71600
O1275       O  0.69266938  0.22892445  0.70691744    -0.71500
O1276       O  0.68039841  0.24651427  0.75542738    -0.71300
C1277       C  0.73259671  0.32681402  0.76194430     0.80500
C1278       C  0.83217069  0.25735501  0.77891927     0.81000
C1279       C  0.73767559  0.21869764  0.82820363     0.79900
C1280       C  0.77129018  0.16738522  0.71988113     0.80300
C1281       C  0.77513246  0.27375417  0.67105490     0.81400
C1282       C  0.67287941  0.23665586  0.72794560     0.80500
Zn1283     Zn  0.73284630  0.73119642  0.70676736     1.49700
Zn1284     Zn  0.78236398  0.77509466  0.73787408     1.49400
Zn1285     Zn  0.71644320  0.77493242  0.76311591     1.49100
Zn1286     Zn  0.75915500  0.71581848  0.77365762     1.49500
O1287       O  0.74776079  0.74869384  0.74539256    -1.80800
O1288       O  0.75292002  0.75186609  0.67083852    -0.71400
O1289       O  0.77867855  0.81366269  0.76259269    -0.71200
O1290       O  0.67562251  0.76681157  0.74429919    -0.70800
O1291       O  0.78612393  0.78606380  0.69195470    -0.71400
O1292       O  0.68742711  0.73662620  0.70276906    -0.71000
O1293       O  0.72734512  0.81950315  0.76129336    -0.71600
O1294       O  0.74336302  0.72559042  0.81693758    -0.71000
O1295       O  0.82070655  0.75524270  0.75167445    -0.71800
O1296       O  0.71376960  0.76739153  0.80883800    -0.71200
O1297       O  0.80557236  0.71277785  0.77770850    -0.71600
O1298       O  0.74269667  0.67559575  0.75733550    -0.71500
O1299       O  0.73845040  0.68564497  0.70520636    -0.71300
C1300       C  0.77271838  0.77353532  0.66820610     0.80500
C1301       C  0.75446689  0.82984725  0.76670466     0.81000
C1302       C  0.66791511  0.75068752  0.72022534     0.79900
C1303       C  0.72649876  0.74774028  0.82699994     0.80300
C1304       C  0.82659391  0.73107849  0.76770889     0.81400
C1305       C  0.73797580  0.66698915  0.72863449     0.80500
C1306       C  0.45750080  0.49672785  0.70893409     0.33300
C1307       C  0.52249761  0.49874365  0.71030585     0.33300
C1308       C  0.47410269  0.46969774  0.72545002    -0.02900
C1309       C  0.47418917  0.49749569  0.67609400    -0.03600
C1310       C  0.47244179  0.52445954  0.72608544    -0.03500
C1311       C  0.50681875  0.47069393  0.72609690    -0.02900
C1312       C  0.50701437  0.49886024  0.67672683    -0.03600
C1313       C  0.50517945  0.52543405  0.72685963    -0.03500
C1314       C  0.51677240  0.44372342  0.74005596    -0.28900
N1315       N  0.49133564  0.42678600  0.74780058     0.17600
C1316       C  0.46523667  0.44214293  0.73899133    -0.28900
H1317       H  0.44181886  0.43295671  0.74030926     0.19500
C1318       C  0.51672101  0.50115839  0.64526142    -0.27900
N1319       N  0.49127322  0.50056158  0.62578638     0.16300
C1320       C  0.46533895  0.49810591  0.64433929    -0.27900
C1321       C  0.51341932  0.55350674  0.73973198    -0.28200
N1322       N  0.48699394  0.56918914  0.74681187     0.16800
H1323       H  0.53672233  0.56296312  0.74122577     0.19500
C1324       C  0.46189186  0.55199468  0.73847580    -0.28200
H1325       H  0.43802024  0.56002529  0.73884271     0.19500
H1326       H  0.44171378  0.49743834  0.63538561     0.19500
H1327       H  0.54063422  0.43598735  0.74238196     0.19500
H1328       H  0.54055336  0.50293348  0.63710861     0.19500
Zn1329     Zn  0.46711255  0.53043543  0.47381719     1.49700
Zn1330     Zn  0.52088360  0.52808378  0.52957121     1.49400
Zn1331     Zn  0.46472362  0.47665536  0.52822572     1.49100
Zn1332     Zn  0.51942715  0.47531673  0.47403382     1.49500
O1333       O  0.49305207  0.50271090  0.50143273    -1.80800
O1334       O  0.47671237  0.57663283  0.48353004    -0.71400
O1335       O  0.51243736  0.51769425  0.57691356    -0.71200
O1336       O  0.41810956  0.48492914  0.51729130    -0.70800
O1337       O  0.51233099  0.57531496  0.52227076    -0.71400
O1338       O  0.41955527  0.52127266  0.47953651    -0.71000
O1339       O  0.47115534  0.48647526  0.57560583    -0.71600
O1340       O  0.51138634  0.42907767  0.48489533    -0.71000
O1341       O  0.56773269  0.51833933  0.52083813    -0.71800
O1342       O  0.47546709  0.42983989  0.52327204    -0.71200
O1343       O  0.56655166  0.48414820  0.48089708    -0.71600
O1344       O  0.50989569  0.48303046  0.42641146    -0.71500
O1345       O  0.47790041  0.52368929  0.42654456    -0.71300
C1346       C  0.49484805  0.59066831  0.50309943     0.80500
C1347       C  0.49161574  0.50171774  0.59127015     0.81000
C1348       C  0.40402353  0.50296107  0.49768041     0.79900
C1349       C  0.49420001  0.41482599  0.50514435     0.80300
C1350       C  0.58192129  0.50094217  0.50065203     0.81400
C1351       C  0.49426373  0.50370559  0.41145892     0.80500
C1352       C  0.49838180  0.47281665  0.29297066     0.33300
C1353       C  0.49773541  0.53819016  0.29309884     0.33300
C1354       C  0.47153878  0.48870481  0.27559132    -0.02900
C1355       C  0.49730306  0.48890555  0.32610721    -0.03600
C1356       C  0.52576151  0.48922064  0.27742494    -0.03500
C1357       C  0.47096700  0.52151025  0.27562473    -0.02900
C1358       C  0.49662766  0.52181456  0.32639051    -0.03600
C1359       C  0.52577498  0.52195530  0.27754196    -0.03500
C1360       C  0.44295764  0.53007391  0.26266589    -0.28900
N1361       N  0.42737659  0.50380462  0.25463565     0.17600
C1362       C  0.44440638  0.47858351  0.26234609    -0.28900
H1363       H  0.43626116  0.45479531  0.26137363     0.19500
C1364       C  0.49483459  0.53052623  0.35828873    -0.27900
N1365       N  0.49516008  0.50450604  0.37692446     0.16300
C1366       C  0.49681063  0.47916253  0.35751538    -0.27900
C1367       C  0.55334681  0.53103881  0.26404218    -0.28200
N1368       N  0.56913086  0.50503062  0.25565092     0.16800
H1369       H  0.56228072  0.55450605  0.26257814     0.19500
C1370       C  0.55271314  0.47953294  0.26365199    -0.28200
H1371       H  0.56098124  0.45582681  0.26193302     0.19500
H1372       H  0.49723836  0.45532516  0.36567281     0.19500
H1373       H  0.43339871  0.55332489  0.26194387     0.19500
H1374       H  0.49383212  0.55408294  0.36731276     0.19500
C1375       C  0.69729465  0.48900584  0.53338606     0.33300
C1376       C  0.69850411  0.49942281  0.46811170     0.33300
C1377       C  0.71166610  0.46321135  0.51266195    -0.02900
C1378       C  0.66506774  0.49398696  0.51718287    -0.03600
C1379       C  0.71514460  0.51784162  0.52243277    -0.03500
C1380       C  0.71227949  0.46861201  0.47970920    -0.02900
C1381       C  0.66553382  0.49881228  0.48381241    -0.03600
C1382       C  0.71565237  0.52349292  0.48911243    -0.03500
C1383       C  0.72006766  0.44099819  0.46497830    -0.28900
N1384       N  0.72442597  0.41928207  0.48791640     0.17600
C1385       C  0.71907850  0.43232551  0.51702174    -0.28900
H1386       H  0.71858573  0.41978686  0.53943494     0.19500
C1387       C  0.63465331  0.50176422  0.47430352    -0.27900
N1388       N  0.61575170  0.49976918  0.50053869     0.16300
C1389       C  0.63416710  0.49522087  0.52671569    -0.27900
C1390       C  0.71798468  0.55539567  0.48585219    -0.28200
N1391       N  0.72004139  0.56854070  0.51522987     0.16800
H1392       H  0.71538608  0.56827883  0.46379903     0.19500
C1393       C  0.71769343  0.54620517  0.53755308    -0.28200
H1394       H  0.71472817  0.55055349  0.56289803     0.19500
H1395       H  0.62565825  0.49234325  0.55089637     0.19500
H1396       H  0.72045186  0.43650861  0.43948597     0.19500
H1397       H  0.62656061  0.50538158  0.45008097     0.19500
C1398       C  0.50117699  0.70607583  0.53648050     0.33300
C1399       C  0.50231530  0.70627466  0.47046751     0.33300
C1400       C  0.53055597  0.71924723  0.52091495    -0.02900
C1401       C  0.49851176  0.67376967  0.52014395    -0.03600
C1402       C  0.47557104  0.72474874  0.51980622    -0.03500
C1403       C  0.53120356  0.71931558  0.48744987    -0.02900
C1404       C  0.49873091  0.67383809  0.48646613    -0.03600
C1405       C  0.47615301  0.72489623  0.48634653    -0.03500
C1406       C  0.56012294  0.72979392  0.47844483    -0.28900
N1407       N  0.57662413  0.73602859  0.50534921     0.17600
C1408       C  0.55902534  0.72965086  0.53139908    -0.28900
H1409       H  0.56691357  0.73099169  0.55596529     0.19500
C1410       C  0.49656732  0.64303058  0.47683982    -0.27900
N1411       N  0.49583734  0.62438927  0.50324485     0.16300
C1412       C  0.49718399  0.64296701  0.52969315    -0.27900
C1413       C  0.44799353  0.73645701  0.47623536    -0.28200
N1414       N  0.43085519  0.74359055  0.50243256     0.16800
H1415       H  0.43948123  0.73685219  0.45185838     0.19500
C1416       C  0.44715123  0.73628759  0.52908684    -0.28200
H1417       H  0.43787576  0.73654063  0.55316788     0.19500
H1418       H  0.49727611  0.63468071  0.55411679     0.19500
H1419       H  0.56905967  0.73130495  0.45428450     0.19500
H1420       H  0.49649933  0.63473151  0.45238058     0.19500
C1421       C  0.28736495  0.49955334  0.52775267     0.33300
C1422       C  0.28809469  0.50936187  0.46235505     0.33300
C1423       C  0.27260538  0.52985489  0.51611087    -0.02900
C1424       C  0.32011363  0.50071866  0.51193490    -0.03600
C1425       C  0.27058286  0.47517114  0.50734210    -0.03500
C1426       C  0.27294761  0.53514227  0.48285487    -0.02900
C1427       C  0.32065489  0.50598149  0.47866178    -0.03600
C1428       C  0.27111635  0.48007016  0.47405196    -0.03500
C1429       C  0.27096756  0.56705271  0.47911843    -0.28900
N1430       N  0.26819883  0.58052235  0.50837583     0.17600
C1431       C  0.26985627  0.55829123  0.53098329    -0.28900
H1432       H  0.27177103  0.56272518  0.55641807     0.19500
C1433       C  0.35191344  0.50762562  0.46999526    -0.27900
N1434       N  0.37011583  0.50287239  0.49641625     0.16300
C1435       C  0.35080266  0.49848644  0.52194359    -0.27900
C1436       C  0.26767864  0.45128246  0.45982946    -0.28200
N1437       N  0.26433726  0.42971921  0.48297902     0.16800
H1438       H  0.27070406  0.44603396  0.43467550     0.19500
C1439       C  0.26687671  0.44369295  0.51184512    -0.28200
H1440       H  0.26920586  0.43148642  0.53433949     0.19500
H1441       H  0.35851806  0.49464351  0.54626312     0.19500
H1442       H  0.27385782  0.57966144  0.45694036     0.19500
H1443       H  0.36073037  0.51191334  0.44616326     0.19500
C1444       C  0.50060889  0.30004527  0.54299631     0.33300
C1445       C  0.50118918  0.29892109  0.47685569     0.33300
C1446       C  0.47412053  0.28235939  0.52665031    -0.02900
C1447       C  0.49880232  0.33237990  0.52612145    -0.03600
C1448       C  0.52919556  0.28529084  0.52700049    -0.03500
C1449       C  0.47432241  0.28186473  0.49317878    -0.02900
C1450       C  0.49951226  0.33148751  0.49241552    -0.03600
C1451       C  0.52939768  0.28474187  0.49352211    -0.03500
C1452       C  0.44630770  0.26980007  0.48344647    -0.28900
N1453       N  0.42956389  0.26289752  0.50992962     0.17600
C1454       C  0.44601867  0.27058315  0.53638138    -0.28900
H1455       H  0.43713834  0.27012178  0.56061518     0.19500
C1456       C  0.49816454  0.36174465  0.48162117    -0.27900
N1457       N  0.49587885  0.38122714  0.50719225     0.16300
C1458       C  0.49606594  0.36360755  0.53442183    -0.27900
C1459       C  0.55637075  0.27042299  0.48401142    -0.28200
N1460       N  0.57225258  0.26225397  0.51064918     0.16800
H1461       H  0.56420438  0.26676474  0.45967494     0.19500
C1462       C  0.55618062  0.27118804  0.53699888    -0.28200
H1463       H  0.56388914  0.26819264  0.56145587     0.19500
H1464       H  0.49475287  0.37282972  0.55848758     0.19500
H1465       H  0.43768956  0.26860423  0.45913233     0.19500
H1466       H  0.49838559  0.36905532  0.45686283     0.19500
C1467       C  0.37016615  0.25268959  0.50940471    -0.09900
C1468       C  0.39783822  0.25619759  0.50987091    -0.11500
C1469       C  0.26402952  0.39751543  0.47823138    -0.09900
C1470       C  0.26363968  0.36957933  0.47670570    -0.11500
C1471       C  0.22277995  0.27822532  0.60893874    -0.09900
C1472       C  0.22064162  0.27579111  0.63711613    -0.11500
C1473       C  0.24780965  0.21417048  0.38620966    -0.09900
C1474       C  0.24466723  0.21115194  0.35804621    -0.11500
C1475       C  0.26695102  0.61255547  0.51473777    -0.09900
C1476       C  0.26463032  0.64017964  0.51935010    -0.11500
C1477       C  0.39896026  0.74992855  0.50203976    -0.09900
C1478       C  0.37117567  0.75323566  0.50178711    -0.11500
C1479       C  0.22439519  0.78211871  0.60816652    -0.09900
C1480       C  0.21759883  0.77957583  0.63558328    -0.11500
C1481       C  0.22782698  0.72570811  0.39030367    -0.09900
C1482       C  0.22367321  0.72615371  0.36232715    -0.11500
C1483       C  0.73340076  0.35975421  0.48004403    -0.09900
C1484       C  0.72956893  0.38748562  0.48236346    -0.11500
C1485       C  0.60246534  0.25040868  0.51076233    -0.09900
C1486       C  0.62942301  0.24315386  0.51059720    -0.11500
C1487       C  0.77583084  0.28255215  0.61173266    -0.09900
C1488       C  0.78036907  0.28403997  0.63969975    -0.11500
C1489       C  0.76904257  0.20399862  0.36714183    -0.09900
C1490       C  0.76394826  0.20452192  0.39515452    -0.11500
C1491       C  0.72476420  0.62803084  0.52519624    -0.09900
C1492       C  0.72140731  0.60045486  0.52167553    -0.11500
C1493       C  0.63619759  0.74624744  0.50613277    -0.09900
C1494       C  0.60844094  0.74274107  0.50605513    -0.11500
C1495       C  0.78222358  0.73039946  0.36272872    -0.09900
C1496       C  0.77724227  0.72447375  0.38992180    -0.11500
C1497       C  0.77825924  0.78097342  0.60855929    -0.09900
C1498       C  0.77967371  0.78305600  0.63688015    -0.11500
C1499       C  0.77932374  0.10830754  0.71395508    -0.09900
C1500       C  0.77681745  0.13588230  0.71173554    -0.11500
C1501       C  0.76316444  0.88799088  0.77920256    -0.09900
C1502       C  0.75831894  0.86095599  0.77626358    -0.11500
C1503       C  0.75388983  0.09897533  0.53081521    -0.09900
C1504       C  0.74940471  0.12654549  0.53285361    -0.11500
C1505       C  0.75942112  0.85377861  0.46869750    -0.09900
C1506       C  0.76203771  0.88157332  0.47001620    -0.11500
C1507       C  0.78155320  0.96315364  0.61111626    -0.09900
C1508       C  0.78576952  0.96338818  0.63946026    -0.11500
C1509       C  0.78315210  0.89166897  0.28340884    -0.09900
C1510       C  0.77924847  0.86430383  0.28543723    -0.11500
C1511       C  0.76382677  0.11238385  0.22316146    -0.09900
C1512       C  0.75782668  0.13919513  0.22654190    -0.11500
C1513       C  0.79549309  0.02282408  0.36429497    -0.09900
C1514       C  0.79208723  0.01992039  0.39262459    -0.11500
C1515       C  0.64950036  0.00238139  0.26912003    -0.09900
C1516       C  0.62064099  0.00371226  0.27228317    -0.11500
C1517       C  0.23503233  0.11303769  0.21716391    -0.09900
C1518       C  0.24078758  0.14003144  0.21634268    -0.11500
C1519       C  0.22177606  0.89240088  0.27917415    -0.09900
C1520       C  0.22529101  0.86495611  0.28079568    -0.11500
C1521       C  0.38532302  0.00558557  0.26851980    -0.09900
C1522       C  0.35634961  0.00459220  0.26533938    -0.11500
C1523       C  0.24790119  0.13836585  0.52892370    -0.09900
C1524       C  0.24422070  0.11077942  0.52931026    -0.11500
C1525       C  0.26961031  0.89632389  0.46922972    -0.09900
C1526       C  0.27093300  0.86852643  0.46682323    -0.11500
C1527       C  0.21946529  0.02692482  0.39181064    -0.09900
C1528       C  0.21453269  0.02785143  0.36353245    -0.11500
C1529       C  0.21472278  0.88584916  0.77557354    -0.09900
C1530       C  0.21552251  0.85859374  0.77077303    -0.11500
C1531       C  0.21131941  0.10703698  0.71835479    -0.09900
C1532       C  0.21426935  0.13455597  0.71626453    -0.11500
C1533       C  0.22239411  0.97182795  0.63794429    -0.09900
C1534       C  0.22970394  0.97316845  0.61022324    -0.11500
C1535       C  0.61722181  0.99957458  0.73457497    -0.09900
C1536       C  0.64605018  0.00008400  0.73700861    -0.11500
C1537       C  0.35046991  0.99941349  0.74008973    -0.09900
C1538       C  0.37928122  0.99946175  0.73726796    -0.11500
C1539       C  0.27798372  0.51349483  0.39731554    -0.09900
C1540       C  0.28472074  0.51317294  0.42617910    -0.11500
C1541       C  0.36783006  0.50010430  0.25059376    -0.09900
C1542       C  0.39548009  0.50226150  0.25006284    -0.11500
C1543       C  0.25763966  0.61390104  0.24708656    -0.09900
C1544       C  0.25953298  0.64042786  0.23983004    -0.11500
C1545       C  0.24145571  0.38891415  0.28407757    -0.09900
C1546       C  0.24001286  0.36146601  0.28085575    -0.11500
C1547       C  0.50267853  0.71498261  0.40567780    -0.09900
C1548       C  0.50291610  0.70913169  0.43447111    -0.11500
C1549       C  0.49878283  0.60313035  0.28680307    -0.09900
C1550       C  0.49804906  0.57424127  0.29077840    -0.11500
C1551       C  0.61291109  0.74805449  0.27145081    -0.09900
C1552       C  0.63924032  0.75622649  0.26787634    -0.11500
C1553       C  0.39119448  0.75216700  0.27488888    -0.09900
C1554       C  0.36460900  0.75952052  0.27201156    -0.11500
C1555       C  0.50326134  0.85936388  0.28460267    -0.09900
C1556       C  0.50267936  0.88828100  0.28326408    -0.11500
C1557       C  0.70293646  0.50411576  0.43225854    -0.09900
C1558       C  0.71085433  0.50632212  0.40386057    -0.11500
C1559       C  0.62839051  0.50140951  0.25183668    -0.09900
C1560       C  0.60087360  0.50385634  0.25062851    -0.11500
C1561       C  0.75400084  0.38925795  0.29391161    -0.09900
C1562       C  0.75634141  0.36181535  0.29159301    -0.11500
C1563       C  0.73790674  0.61581917  0.26321992    -0.09900
C1564       C  0.73876396  0.64271839  0.25701037    -0.11500
C1565       C  0.50126177  0.29176445  0.41193898    -0.09900
C1566       C  0.50138711  0.29631841  0.44092873    -0.11500
C1567       C  0.49979138  0.40819317  0.28790551    -0.09900
C1568       C  0.49907746  0.43702056  0.29102629    -0.11500
C1569       C  0.38901882  0.27074059  0.28315398    -0.09900
C1570       C  0.36252228  0.26511751  0.27743873    -0.11500
C1571       C  0.64175997  0.27003944  0.28531712    -0.09900
C1572       C  0.61490819  0.27658780  0.28721953    -0.11500
C1573       C  0.50434794  0.15149446  0.28615460    -0.09900
C1574       C  0.50398451  0.12254948  0.28379696    -0.11500
C1575       C  0.50007763  0.28946652  0.60758372    -0.09900
C1576       C  0.50023498  0.29698618  0.57911519    -0.11500
C1577       C  0.49349039  0.36751396  0.75600278    -0.09900
C1578       C  0.49222841  0.39522679  0.75469043    -0.11500
C1579       C  0.61348106  0.24054866  0.72007752    -0.09900
C1580       C  0.64087846  0.23633596  0.72051885    -0.11500
C1581       C  0.38877969  0.22906373  0.72946451    -0.09900
C1582       C  0.36158468  0.22385723  0.72988327    -0.11500
C1583       C  0.49939030  0.13724999  0.71503256    -0.09900
C1584       C  0.49828152  0.10933709  0.71625557    -0.11500
C1585       C  0.27833181  0.49256344  0.59249910    -0.09900
C1586       C  0.28403785  0.49490480  0.56363699    -0.11500
C1587       C  0.39311171  0.49541849  0.71243796    -0.09900
C1588       C  0.42188444  0.49587151  0.70980896    -0.11500
C1589       C  0.26913554  0.38345197  0.74379623    -0.09900
C1590       C  0.26930515  0.35679639  0.75162426    -0.11500
C1591       C  0.25641763  0.63445986  0.72876929    -0.09900
C1592       C  0.25946225  0.60746140  0.72323964    -0.11500
C1593       C  0.49868235  0.71475832  0.60102731    -0.09900
C1594       C  0.50023203  0.70861452  0.57238669    -0.11500
C1595       C  0.48672191  0.62882425  0.75208574    -0.09900
C1596       C  0.48615100  0.60106081  0.75210873    -0.11500
C1597       C  0.38136473  0.75463518  0.71136511    -0.09900
C1598       C  0.35382690  0.75748581  0.71008856    -0.11500
C1599       C  0.60853151  0.74389817  0.71385966    -0.09900
C1600       C  0.63601558  0.74690945  0.71397251    -0.11500
C1601       C  0.49782877  0.86042500  0.71953507    -0.09900
C1602       C  0.49854032  0.88830732  0.72222507    -0.11500
C1603       C  0.50449620  0.26699131  0.12896465    -0.09900
C1604       C  0.50497017  0.27263476  0.15790159    -0.11500
C1605       C  0.50407676  0.24285794  0.86006577    -0.09900
C1606       C  0.50460484  0.24231838  0.88953601    -0.11500
C1607       C  0.26893589  0.21006417  0.88760973    -0.09900
C1608       C  0.27153777  0.21140789  0.85937623    -0.11500
C1609       C  0.28348094  0.24910981  0.10910190    -0.09900
C1610       C  0.28749998  0.25870794  0.13554108    -0.11500
C1611       C  0.36831054  0.21676258  0.00903690    -0.09900
C1612       C  0.39570123  0.22270557  0.01081853    -0.11500
C1613       C  0.24857017  0.49700765  0.11145419    -0.09900
C1614       C  0.24813347  0.49526975  0.14080242    -0.11500
C1615       C  0.26519314  0.50474346  0.87599548    -0.09900
C1616       C  0.26665888  0.50423953  0.84664257    -0.11500
C1617       C  0.25682072  0.35394378  0.99028536    -0.09900
C1618       C  0.25673341  0.38292619  0.98984789    -0.11500
C1619       C  0.26954336  0.78655950  0.13772411    -0.09900
C1620       C  0.26462153  0.78875767  0.10981517    -0.11500
C1621       C  0.27366595  0.77616557  0.88093090    -0.09900
C1622       C  0.27724188  0.76924514  0.85368685    -0.11500
C1623       C  0.25481312  0.64902715  0.99832342    -0.09900
C1624       C  0.25496952  0.61996930  0.99754869    -0.11500
C1625       C  0.50881575  0.73756328  0.12265365    -0.09900
C1626       C  0.50860972  0.73344240  0.15188086    -0.11500
C1627       C  0.49885625  0.75478708  0.85357307    -0.09900
C1628       C  0.50026330  0.75616426  0.88290797    -0.11500
C1629       C  0.39560000  0.77604561  0.00758561    -0.09900
C1630       C  0.36823578  0.78210033  0.00575297    -0.11500
C1631       C  0.73971614  0.78678091  0.14090647    -0.09900
C1632       C  0.74648546  0.78793618  0.11333903    -0.11500
C1633       C  0.73110796  0.76137279  0.88660661    -0.09900
C1634       C  0.72532524  0.75350491  0.86000493    -0.11500
C1635       C  0.64141305  0.78211036  0.00091621    -0.09900
C1636       C  0.61399907  0.77621007  0.00150126    -0.11500
C1637       C  0.74004853  0.23911507  0.11881357    -0.09900
C1638       C  0.73376816  0.24753459  0.14523422    -0.11500
C1639       C  0.73772256  0.20838543  0.88884411    -0.09900
C1640       C  0.73483872  0.21022471  0.86059083    -0.11500
C1641       C  0.61222863  0.22102828  0.01416018    -0.09900
C1642       C  0.63944164  0.21434799  0.01392942    -0.11500
C1643       C  0.74487473  0.49463771  0.11907482    -0.09300
C1644       C  0.74602817  0.49383822  0.14851033    -0.11500
C1645       C  0.74340496  0.61563522  0.00372369    -0.09900
C1646       C  0.74585856  0.64452212  0.00385392    -0.11500
C1647       C  0.74072563  0.37972428  0.99735894    -0.09900
C1648       C  0.74324647  0.35082453  0.99741470    -0.11500
C1649       C  0.70438438  0.48345511  0.59841567    -0.09900
C1650       C  0.69955551  0.48420508  0.56930321    -0.11500
C1651       C  0.58689323  0.49946753  0.71675884    -0.09900
C1652       C  0.55817169  0.49945618  0.71285733    -0.11500
C1653       C  0.72559953  0.60830836  0.72009591    -0.09900
C1654       C  0.73124847  0.63534265  0.72266339    -0.11500
C1655       C  0.71570784  0.38370075  0.75060160    -0.09900
C1656       C  0.72165474  0.35775528  0.75885626    -0.11500
C1657       C  0.71777975  0.50105360  0.85376189    -0.09900
C1658       C  0.72126384  0.50072486  0.88310448    -0.11500
C1659       C  0.10920494  0.49726553  0.72451569    -0.09900
C1660       C  0.13806360  0.49692400  0.72115588    -0.11500
C1661       C  0.87101755  0.48952487  0.72761274    -0.09900
C1662       C  0.84205678  0.48905366  0.72507107    -0.11500
C1663       C  0.85819552  0.72566716  0.77507732    -0.09900
C1664       C  0.88571679  0.72825964  0.77777962    -0.11500
C1665       C  0.11009153  0.72074649  0.78351430    -0.09900
C1666       C  0.13764852  0.71763425  0.78226651    -0.11500
C1667       C  0.98813137  0.60069221  0.76323529    -0.09900
C1668       C  0.98970267  0.62774625  0.77109932    -0.11500
C1669       C  0.10782917  0.76521823  0.49149416    -0.09900
C1670       C  0.13560382  0.76436068  0.49342197    -0.11500
C1671       C  0.89519997  0.71197154  0.49652114    -0.09900
C1672       C  0.86758967  0.71255946  0.49951004    -0.11500
C1673       C  0.00193638  0.74600121  0.61323905    -0.09900
C1674       C  0.00110887  0.74521792  0.64263310    -0.11500
C1675       C  0.11394110  0.74670387  0.20471812    -0.09900
C1676       C  0.14144984  0.74516435  0.20747003    -0.11500
C1677       C  0.85781409  0.73878591  0.20268166    -0.09900
C1678       C  0.88524947  0.74022064  0.19850829    -0.11500
C1679       C  0.99587310  0.74777626  0.34135431    -0.09900
C1680       C  0.99616892  0.74728344  0.37084878    -0.11500
C1681       C  0.10739300  0.49905741  0.26703788    -0.09900
C1682       C  0.13477446  0.50014081  0.27331349    -0.11500
C1683       C  0.88633662  0.50501562  0.27590078    -0.09900
C1684       C  0.85894217  0.50588576  0.28223880    -0.11500
C1685       C  0.99940173  0.63663995  0.21336158    -0.09900
C1686       C  0.99857869  0.61009109  0.22239039    -0.11500
C1687       C  0.11536567  0.25720642  0.79537263    -0.09900
C1688       C  0.14295372  0.25964412  0.79447600    -0.11500
C1689       C  0.89079130  0.25851397  0.79140698    -0.09900
C1690       C  0.86324156  0.26013940  0.78918509    -0.11500
C1691       C  0.99343758  0.38712868  0.76222098    -0.09900
C1692       C  0.99632882  0.36081627  0.77175145    -0.11500
C1693       C  0.89132376  0.24760347  0.49985895    -0.09900
C1694       C  0.86357522  0.24739806  0.49944142    -0.11500
C1695       C  0.11018252  0.26735224  0.49319664    -0.09900
C1696       C  0.13755401  0.26586058  0.48872852    -0.11500
C1697       C  0.00460598  0.24889629  0.61926359    -0.09900
C1698       C  0.00446863  0.24823611  0.64875628    -0.11500
C1699       C  0.86101660  0.26809018  0.22733424    -0.09900
C1700       C  0.88770322  0.26568106  0.22039025    -0.11500
C1701       C  0.14090445  0.26560023  0.22035365    -0.09900
C1702       C  0.11360577  0.26418453  0.21652388    -0.11500
C1703       C  0.99211599  0.39334866  0.22230827    -0.09900
C1704       C  0.99333959  0.36640480  0.21462383    -0.11500
C1705       C  0.99866287  0.25727847  0.37762200    -0.09900
C1706       C  0.99909888  0.25714352  0.34833320    -0.11500
C1707       C  0.90023493  0.75254506  0.99067544    -0.09900
C1708       C  0.87248333  0.75295385  0.99179207    -0.11500
C1709       C  0.10887866  0.76009980  0.98820032    -0.09900
C1710       C  0.13669505  0.76062327  0.98879401    -0.11500
C1711       C  0.00180117  0.79046020  0.92076727    -0.09900
C1712       C  0.00134752  0.78068238  0.89299790    -0.11500
C1713       C  0.00336067  0.78972627  0.05879680    -0.09900
C1714       C  0.00278300  0.78165579  0.08703838    -0.11500
C1715       C  0.78392661  0.09463079  0.01292537    -0.09900
C1716       C  0.79095780  0.06625729  0.01269488    -0.11500
C1717       C  0.78591301  0.90125551  0.99268748    -0.09900
C1718       C  0.79204606  0.92985791  0.99320969    -0.11500
C1719       C  0.76305043  0.02342976  0.86767796    -0.09900
C1720       C  0.76365662  0.01882700  0.89579418    -0.11500
C1721       C  0.75127107  0.97964758  0.10618134    -0.09900
C1722       C  0.75156195  0.97693164  0.13461096    -0.11500
C1723       C  0.89803880  0.23929175  0.99701276    -0.09900
C1724       C  0.87027072  0.23849687  0.99740140    -0.11500
C1725       C  0.13649026  0.24012092  0.00321274    -0.09900
C1726       C  0.10871997  0.23906920  0.00277760    -0.11500
C1727       C  0.00428182  0.20848738  0.93050466    -0.09900
C1728       C  0.00458729  0.21634900  0.90222185    -0.11500
C1729       C  0.00081925  0.20813674  0.06841748    -0.09900
C1730       C  0.00070539  0.21644845  0.09663248    -0.11500
C1731       C  0.22195021  0.90549334  0.99037588    -0.09900
C1732       C  0.21430849  0.93367548  0.99158772    -0.11500
C1733       C  0.22161852  0.09859489  0.00922800    -0.09900
C1734       C  0.21403912  0.07032667  0.00816001    -0.11500
C1735       C  0.25268244  0.01707726  0.89592005    -0.09900
C1736       C  0.25087490  0.01965409  0.86752355    -0.11500
C1737       C  0.25162997  0.98213314  0.13293625    -0.09900
C1738       C  0.25158136  0.98572442  0.10462461    -0.11500
C1739       C  0.90150087  0.99635472  0.77827173    -0.09900
C1740       C  0.93002252  0.99582657  0.78413496    -0.11500
C1741       C  0.99805997  0.12921956  0.75617548    -0.09900
C1742       C  0.99748665  0.10143642  0.75448512    -0.11500
C1743       C  0.09541256  0.99755286  0.77818680    -0.09900
C1744       C  0.06682993  0.99712680  0.78359774    -0.11500
C1745       C  0.99962795  0.86095522  0.75295988    -0.09900
C1746       C  0.99932744  0.88881367  0.75419859    -0.11500
C1747       C  0.09887718  0.00093114  0.21895788    -0.09900
C1748       C  0.07038686  0.00055190  0.21239838    -0.11500
C1749       C  0.99690136  0.86773165  0.23501613    -0.09900
C1750       C  0.99801586  0.89539471  0.23710618    -0.11500
C1751       C  0.90443193  0.00297121  0.21578808    -0.09900
C1752       C  0.93300470  0.00280354  0.20968261    -0.11500
C1753       C  0.00263028  0.10709154  0.24309326    -0.09900
C1754       C  0.00238716  0.13482948  0.24252651    -0.11500
loop_ 
_geom_bond_atom_site_label_1 
_geom_bond_atom_site_label_2 
_geom_bond_distance 
_geom_bond_site_symmetry_2 
_ccdc_geom_bond_type 
Zn1           O5   2.021   1_655  S
Zn1           O6   2.086       .  S
Zn1          O10   2.112       .  S
Zn1          O17   2.096       .  S
Zn2           O5   2.020   1_545  S
Zn2           O7   2.100       .  S
Zn2           O9   2.101       .  S
Zn2          O13   2.129       .  S
Zn3           O5   2.017   1_644  S
Zn3           O8   2.097       .  S
Zn3          O11   2.084       .  S
Zn3          O14   2.074       .  S
Zn4           O5   2.021   1_554  S
Zn4          O12   2.109       .  S
Zn4          O15   2.123       .  S
Zn4          O16   2.114       .  S
O6           C18   1.283   1_565  A
O7           C19   1.284       .  A
O8           C20   1.282   1_545  A
O9           C18   1.285   1_455  A
O10          C20   1.284   1_556  A
O11          C19   1.282   1_654  A
O12          C21   1.285       .  A
O13          C22   1.286       .  A
O14          C21   1.281   1_645  A
O15          C22   1.286   1_564  A
O16          C23   1.287   1_554  A
O17          C23   1.283   1_655  A
C18          N60   1.458       .  S
C19         N106   1.458   1_455  S
C20         N129   1.465       .  S
C21          N37   1.458       .  S
C22          N83   1.471       .  S
C23         N152   1.463       .  S
C24          C26   1.533   1_545  S
C24          C28   1.528       .  S
C24          C27   1.565       .  S
C24        C1752   1.553       .  S
C25          C29   1.537   1_545  S
C25          C31   1.534       .  S
C25          C30   1.567   1_545  S
C25        C1748   1.554       .  S
C26          C34   1.370       .  A
C26          C29   1.417   1_655  A
C27          C38   1.388       .  A
C27          C30   1.419   1_645  A
C28          C42   1.368       .  A
C28          C31   1.407   1_655  A
C29          C32   1.373       .  A
C30          C36   1.393       .  A
C31          C39   1.371       .  A
C32          N33   1.352   1_455  A
C32          H45   1.083       .  S
N33          C34   1.349       .  A
N33        C1750   1.389       .  S
C34          H35   1.083       .  S
C36          N37   1.368       .  A
C36          H46   1.082       .  S
N37          C38   1.367   1_465  A
C38          H44   1.082       .  S
C39          N40   1.353       .  A
C39          H41   1.083       .  S
N40          C42   1.352   1_455  A
N40        C1753   1.389       .  S
C42          H43   1.083       .  S
C47          C49   1.535       .  S
C47          C51   1.534   1_565  S
C47          C50   1.561   1_565  S
C47        C1744   1.545       .  S
C48          C52   1.534       .  S
C48          C54   1.537   1_565  S
C48          C53   1.564       .  S
C48        C1740   1.546       .  S
C49          C57   1.373       .  A
C49          C52   1.406   1_455  A
C50          C61   1.389       .  A
C50          C53   1.416   1_445  A
C51          C65   1.374       .  A
C51          C54   1.416   1_455  A
C52          C55   1.373       .  A
C53          C59   1.391   1_565  A
C54          C62   1.375       .  A
C55          N56   1.354       .  A
C55          H68   1.083       .  S
N56          C57   1.355   1_655  A
N56        C1746   1.396       .  S
C57          H58   1.083       .  S
C59          N60   1.368       .  A
C59          H69   1.082   1_545  S
N60          C61   1.366   1_655  A
C61          H67   1.082       .  S
C62          N63   1.350       .  A
C62          H64   1.083       .  S
N63          C65   1.350   1_655  A
N63        C1742   1.393       .  S
C65          H66   1.083       .  S
C70          C72   1.537       .  S
C70          C74   1.522   1_556  S
C70          C73   1.575       .  S
C70        C1732   1.559       .  S
C71          C75   1.527   1_554  S
C71          C77   1.541       .  S
C71          C76   1.581       .  S
C71        C1734   1.563       .  S
C72          C80   1.372       .  A
C72          C75   1.408   1_565  A
C73          C84   1.397       .  A
C73          C76   1.425   1_566  A
C74          C88   1.364       .  A
C74          C77   1.408   1_565  A
C75          C78   1.367       .  A
C76          C82   1.401       .  A
C77          C85   1.374       .  A
C78          N79   1.350       .  A
C78          H91   1.083       .  S
N79          C80   1.357   1_545  A
N79        C1735   1.389       .  S
C80          H81   1.083       .  S
C82          N83   1.373   1_554  A
C82          H92   1.082       .  S
N83          C84   1.370   1_545  A
C84          H90   1.082       .  S
C85          N86   1.358   1_545  A
C85          H87   1.083       .  S
N86          C88   1.347       .  A
N86        C1738   1.388       .  S
C88          H89   1.083       .  S
C93          C95   1.527       .  S
C93          C97   1.527   1_455  S
C93          C96   1.562   1_455  S
C93        C1729   1.512       .  S
C94          C98   1.525       .  S
C94         C100   1.529   1_455  S
C94          C99   1.559   1_455  S
C94        C1727   1.510       .  S
C95         C103   1.370       .  A
C95          C98   1.397   1_554  A
C96         C107   1.391       .  A
C96          C99   1.411   1_554  A
C97         C111   1.370       .  A
C97         C100   1.404   1_554  A
C98         C101   1.369       .  A
C99         C105   1.390   1_655  A
C100        C108   1.372       .  A
C101        N102   1.353   1_556  A
C101        H114   1.083       .  S
N102        C103   1.352       .  A
N102       C1726   1.389       .  S
C103        H104   1.083       .  S
C105        N106   1.367   1_455  A
C105        H115   1.082       .  S
N106        C107   1.368   1_556  A
C107        H113   1.082       .  S
C108        N109   1.350       .  A
C108        H110   1.083       .  S
N109        C111   1.349   1_556  A
N109       C1723   1.388       .  S
C111        H112   1.083       .  S
C116        C118   1.523   1_554  S
C116        C120   1.536       .  S
C116        C119   1.573       .  S
C116       C1716   1.560       .  S
C117        C121   1.542       .  S
C117        C123   1.529   1_556  S
C117        C122   1.569   1_556  S
C117       C1718   1.562       .  S
C118        C126   1.363       .  A
C118        C121   1.413   1_545  A
C119        C130   1.394       .  A
C119        C122   1.423   1_545  A
C120        C134   1.372       .  A
C120        C123   1.408   1_545  A
C121        C124   1.375       .  A
C122        C128   1.393   1_554  A
C123        C131   1.367       .  A
C124        N125   1.358   1_565  A
C124        H137   1.083       .  S
N125        C126   1.344       .  A
N125       C1720   1.387       .  S
C126        H127   1.083       .  S
C128        N129   1.369   1_556  A
C128        H138   1.082       .  S
N129        C130   1.370   1_565  A
C130        H136   1.082       .  S
C131        N132   1.349       .  A
C131        H133   1.083       .  S
N132        C134   1.357   1_565  A
N132       C1721   1.389       .  S
C134        H135   1.083       .  S
C139        C141   1.530       .  S
C139        C143   1.524   1_455  S
C139        C142   1.571       .  S
C139       C1711   1.515       .  S
C140        C144   1.526       .  S
C140        C146   1.525   1_455  S
C140        C145   1.560       .  S
C140       C1713   1.512       .  S
C141        C149   1.371       .  A
C141        C144   1.399   1_556  A
C142        C153   1.396       .  A
C142        C145   1.414   1_556  A
C143        C157   1.370       .  A
C143        C146   1.395   1_556  A
C144        C147   1.369       .  A
C145        C151   1.390       .  A
C146        C154   1.369       .  A
C147        N148   1.353   1_554  A
C147        H160   1.083       .  S
N148        C149   1.353       .  A
N148       C1709   1.390       .  S
C149        H150   1.083       .  S
C151        N152   1.366   1_554  A
C151        H161   1.082       .  S
N152        C153   1.371       .  A
C153        H159   1.082       .  S
C154        N155   1.352   1_554  A
C154        H156   1.083       .  S
N155        C157   1.352       .  A
N155       C1707   1.387       .  S
C157        H158   1.083       .  S
Zn162       O166   1.935       .  S
Zn162       O167   1.982       .  S
Zn162       O171   2.065       .  S
Zn162       O178   1.991       .  S
Zn163       O166   1.942       .  S
Zn163       O168   1.971       .  S
Zn163       O170   1.952       .  S
Zn163       O174   2.069       .  S
Zn164       O166   1.972   1_655  S
Zn164       O169   2.116       .  S
Zn164       O172   2.051       .  S
Zn164       O175   1.980       .  S
Zn165       O166   1.938   1_655  S
Zn165       O173   1.962       .  S
Zn165       O176   2.058       .  S
Zn165       O177   1.988       .  S
O167        C179   1.272       .  A
O168        C180   1.268   1_455  A
O169        C181   1.283   1_655  A
O170        C179   1.267       .  A
O171        C181   1.274       .  A
O172        C180   1.279       .  A
O173        C182   1.270       .  A
O174        C183   1.273   1_455  A
O175        C182   1.270       .  A
O176        C183   1.271       .  A
O177        C184   1.271   1_655  A
O178        C184   1.272       .  A
C179       C1702   1.401       .  S
C180       C1704   1.430       .  S
C181       C1730   1.479       .  S
C182       C1700   1.404       .  S
C183       C1706   1.466       .  S
C184       C1754   1.416       .  S
N185        C190   1.362       .  A
N185        C189   1.344       .  A
N185        H217   1.040       .  S
N186        C193   1.348       .  A
N186        C194   1.361       .  A
N187        C192   1.349       .  A
N187        C191   1.365       .  A
N187        H218   1.040       .  S
N188        C195   1.358       .  A
N188        C196   1.344       .  A
C189        C197   1.393       .  A
C189        C205   1.413       .  A
C190        C206   1.413   1_455  A
C190        C198   1.382       .  A
C191        C199   1.383       .  A
C191        C208   1.422   1_655  A
C192        C207   1.421       .  A
C192        C200   1.392       .  A
C193        C205   1.421       .  A
C193        C201   1.391       .  A
C194        C208   1.419       .  A
C194        C202   1.382       .  A
C195        C203   1.381       .  A
C195        C206   1.412       .  A
C196        C204   1.393       .  A
C196        C207   1.415       .  A
C197        C198   1.375       .  A
C197        H209   1.082       .  S
C198        H210   1.082       .  S
C199        C200   1.378       .  A
C199        H211   1.082       .  S
C200        H212   1.082       .  S
C201        C202   1.379       .  A
C201        H213   1.082       .  S
C202        H214   1.082       .  S
C203        C204   1.376       .  A
C203        H215   1.082       .  S
C204        H216   1.082       .  S
C205       C1695   1.429       .  S
C206       C1705   1.478       .  S
C207       C1693   1.429       .  S
C208       C1697   1.492       .  S
Zn219       O223   1.931       .  S
Zn219       O224   2.051       .  S
Zn219       O228   1.985       .  S
Zn219       O235   1.993       .  S
Zn220       O223   1.972   1_655  S
Zn220       O225   2.059       .  S
Zn220       O227   2.120       .  S
Zn220       O231   1.970       .  S
Zn221       O223   1.935       .  S
Zn221       O226   1.985       .  S
Zn221       O229   1.988       .  S
Zn221       O232   2.088       .  S
Zn222       O223   1.937   1_655  S
Zn222       O230   2.098       .  S
Zn222       O233   1.996       .  S
Zn222       O234   2.010       .  S
O224        C236   1.272       .  A
O225        C237   1.280   1_655  A
O226        C238   1.273       .  A
O227        C236   1.283   1_655  A
O228        C238   1.271       .  A
O229        C237   1.270       .  A
O230        C239   1.279   1_655  A
O231        C240   1.269       .  A
O232        C239   1.278       .  A
O233        C240   1.276       .  A
O234        C241   1.273       .  A
O235        C241   1.273   1_455  A
C236       C1728   1.477       .  S
C237       C1692   1.437   1_455  S
C238       C1687   1.412       .  S
C239       C1698   1.481       .  S
C240       C1689   1.409       .  S
C241       C1741   1.423       .  S
N242        C247   1.356       .  A
N242        C246   1.348       .  A
N242        H274   1.035       .  S
N243        C250   1.350       .  A
N243        C251   1.351       .  A
N244        C249   1.356       .  A
N244        C248   1.351       .  A
N244        H275   1.035       .  S
N245        C252   1.343       .  A
N245        C253   1.342       .  A
C246        C254   1.387       .  A
C246        C262   1.413   1_455  A
C247        C263   1.421       .  A
C247        C255   1.389       .  A
C248        C256   1.386       .  A
C248        C265   1.415       .  A
C249        C264   1.421       .  A
C249        C257   1.389       .  A
C250        C262   1.414       .  A
C250        C258   1.387       .  A
C251        C265   1.416       .  A
C251        C259   1.388       .  A
C252        C260   1.387       .  A
C252        C263   1.410       .  A
C253        C261   1.388       .  A
C253        C264   1.411   1_455  A
C254        C255   1.380       .  A
C254        H266   1.082       .  S
C255        H267   1.082       .  S
C256        C257   1.378       .  A
C256        H268   1.082       .  S
C257        H269   1.082       .  S
C258        C259   1.378       .  A
C258        H270   1.082       .  S
C259        H271   1.082       .  S
C260        C261   1.379       .  A
C260        H272   1.082       .  S
C261        H273   1.082       .  S
C262       C1703   1.446       .  S
C263       C1681   1.450       .  S
C264       C1686   1.448       .  S
C265       C1683   1.452       .  S
Zn276       O280   1.942   1_455  S
Zn276       O281   1.975       .  S
Zn276       O285   2.051       .  S
Zn276       O292   1.978       .  S
Zn277       O280   1.951       .  S
Zn277       O282   2.000       .  S
Zn277       O284   2.004       .  S
Zn277       O288   2.098       .  S
Zn278       O280   1.978       .  S
Zn278       O283   2.126       .  S
Zn278       O286   1.989       .  S
Zn278       O289   2.056       .  S
Zn279       O280   1.947   1_455  S
Zn279       O287   1.979       .  S
Zn279       O290   2.085       .  S
Zn279       O291   1.978       .  S
O281        C293   1.270   1_455  A
O282        C294   1.276       .  A
O283        C295   1.283   1_655  A
O284        C293   1.273       .  A
O285        C295   1.272       .  A
O286        C294   1.270       .  A
O287        C296   1.270       .  A
O288        C297   1.278       .  A
O289        C296   1.280   1_655  A
O290        C297   1.276   1_455  A
O291        C298   1.271       .  A
O292        C298   1.269       .  A
C293       C1749   1.417       .  S
C294       C1678   1.416       .  S
C295       C1714   1.479       .  S
C296       C1685   1.432   1_455  S
C297       C1679   1.481       .  S
C298       C1675   1.409       .  S
N299        C304   1.351       .  A
N299        C303   1.366       .  A
N299        H331   1.040       .  S
N300        C307   1.361       .  A
N300        C308   1.348       .  A
N301        C306   1.363       .  A
N301        C305   1.346       .  A
N301        H332   1.039       .  S
N302        C309   1.345       .  A
N302        C310   1.360       .  A
C303        C311   1.382       .  A
C303        C319   1.421   1_455  A
C304        C320   1.424       .  A
C304        C312   1.393       .  A
C305        C313   1.392       .  A
C305        C322   1.416       .  A
C306        C321   1.418   1_655  A
C306        C314   1.383       .  A
C307        C319   1.417       .  A
C307        C315   1.382       .  A
C308        C322   1.421       .  A
C308        C316   1.392       .  A
C309        C317   1.393       .  A
C309        C320   1.419       .  A
C310        C318   1.382       .  A
C310        C321   1.417       .  A
C311        C312   1.379       .  A
C311        H323   1.082       .  S
C312        H324   1.082       .  S
C313        C314   1.377       .  A
C313        H325   1.082       .  S
C314        H326   1.082       .  S
C315        C316   1.377       .  A
C315        H327   1.082       .  S
C316        H328   1.082       .  S
C317        C318   1.378       .  A
C317        H329   1.082       .  S
C318        H330   1.082       .  S
C319       C1680   1.492       .  S
C320       C1669   1.436       .  S
C321       C1673   1.487       .  S
C322       C1671   1.431       .  S
Zn333       O337   1.937   1_455  S
Zn333       O338   1.989       .  S
Zn333       O342   1.974       .  S
Zn333       O349   2.078       .  S
Zn334       O337   1.970       .  S
Zn334       O339   2.137       .  S
Zn334       O341   2.079       .  S
Zn334       O345   1.981       .  S
Zn335       O337   1.928   1_455  S
Zn335       O340   2.006       .  S
Zn335       O343   2.054       .  S
Zn335       O346   2.005       .  S
Zn336       O337   1.935       .  S
Zn336       O344   2.012       .  S
Zn336       O347   2.005       .  S
Zn336       O348   2.086       .  S
O338        C350   1.271   1_455  A
O339        C351   1.286   1_655  A
O340        C352   1.275       .  A
O341        C350   1.284       .  A
O342        C352   1.270       .  A
O343        C351   1.273       .  A
O344        C353   1.275       .  A
O345        C354   1.270       .  A
O346        C353   1.275   1_455  A
O347        C354   1.276       .  A
O348        C355   1.277       .  A
O349        C355   1.276   1_455  A
C350       C1668   1.442       .  S
C351       C1712   1.483       .  S
C352       C1665   1.416       .  S
C353       C1745   1.426       .  S
C354       C1664   1.415       .  S
C355       C1674   1.475   1_655  S
N356        C361   1.371       .  A
N356        C360   1.354       .  A
N356        H388   1.038       .  S
N357        C364   1.352       .  A
N357        C365   1.366       .  A
N358        C363   1.356       .  A
N358        C362   1.372       .  A
N358        H389   1.038       .  S
N359        C366   1.368       .  A
N359        C367   1.353       .  A
C360        C368   1.395       .  A
C360        C376   1.434   1_455  A
C361        C377   1.430       .  A
C361        C369   1.382       .  A
C362        C370   1.383       .  A
C362        C379   1.435       .  A
C363        C378   1.437       .  A
C363        C371   1.393       .  A
C364        C376   1.431       .  A
C364        C372   1.392       .  A
C365        C379   1.431       .  A
C365        C373   1.383       .  A
C366        C374   1.382       .  A
C366        C377   1.432       .  A
C367        C375   1.393       .  A
C367        C378   1.435   1_455  A
C368        C369   1.380       .  A
C368        H380   1.082       .  S
C369        H381   1.082       .  S
C370        C371   1.383       .  A
C370        H382   1.082       .  S
C371        H383   1.082       .  S
C372        C373   1.382       .  A
C372        H384   1.082       .  S
C373        H385   1.082       .  S
C374        C375   1.382       .  A
C374        H386   1.082       .  S
C375        H387   1.082       .  S
C376       C1691   1.454       .  S
C377       C1659   1.517       .  S
C378       C1667   1.460       .  S
C379       C1661   1.518       .  S
Zn390       O394   2.011       .  S
Zn390       O395   2.179       .  S
Zn390       O399   2.148       .  S
Zn390       O406   2.034       .  S
Zn391       O394   2.004       .  S
Zn391       O396   1.985       .  S
Zn391       O398   2.102       .  S
Zn391       O402   2.086       .  S
Zn392       O394   2.002       .  S
Zn392       O397   2.058       .  S
Zn392       O400   2.012       .  S
Zn392       O403   2.109       .  S
Zn393       O394   2.014       .  S
Zn393       O401   2.150       .  S
Zn393       O404   2.118       .  S
Zn393       O405   1.989       .  S
O395        C407   1.289       .  A
O396        C408   1.274       .  A
O397        C409   1.276       .  A
O398        C407   1.278       .  A
O399        C409   1.289       .  A
O400        C408   1.277       .  A
O401        C410   1.286       .  A
O402        C411   1.279       .  A
O403        C410   1.279       .  A
O404        C411   1.284       .  A
O405        C412   1.274       .  A
O406        C412   1.282       .  A
C407       C1662   1.509       .  S
C408       C1653   1.414       .  S
C409       C1649   1.484       .  S
C410       C1651   1.502       .  S
C411       C1657   1.485       .  S
C412       C1655   1.421       .  S
N413        C418   1.371       .  A
N413        C417   1.364       .  A
N413        H445   1.034       .  S
N414        C421   1.364       .  A
N414        C422   1.369       .  A
N415        C420   1.366       .  A
N415        C419   1.372       .  A
N415        H446   1.034       .  S
N416        C423   1.370       .  A
N416        C424   1.365       .  A
C417        C425   1.390       .  A
C417        C433   1.442       .  A
C418        C434   1.443   1_554  A
C418        C426   1.386       .  A
C419        C427   1.386       .  A
C419        C436   1.445   1_556  A
C420        C435   1.446       .  A
C420        C428   1.390       .  A
C421        C433   1.442       .  A
C421        C429   1.389       .  A
C422        C436   1.442       .  A
C422        C430   1.386       .  A
C423        C431   1.385       .  A
C423        C434   1.443       .  A
C424        C432   1.389       .  A
C424        C435   1.445       .  A
C425        C426   1.383       .  A
C425        H437   1.082       .  S
C426        H438   1.082       .  S
C427        C428   1.385       .  A
C427        H439   1.082       .  S
C428        H440   1.082       .  S
C429        C430   1.382       .  A
C429        H441   1.082       .  S
C430        H442   1.082       .  S
C431        C432   1.382       .  A
C431        H443   1.082       .  S
C432        H444   1.082       .  S
C433       C1643   1.492       .  S
C434       C1647   1.519       .  S
C435       C1658   1.498       .  S
C436       C1645   1.518       .  S
Zn447       O451   1.978   1_556  S
Zn447       O452   1.974       .  S
Zn447       O456   2.143       .  S
Zn447       O463   1.976       .  S
Zn448       O451   1.970   1_556  S
Zn448       O453   1.999       .  S
Zn448       O455   2.000       .  S
Zn448       O459   2.135       .  S
Zn449       O451   1.973       .  S
Zn449       O454   2.125       .  S
Zn449       O457   1.990       .  S
Zn449       O460   1.970       .  S
Zn450       O451   1.999       .  S
Zn450       O458   2.004       .  S
Zn450       O461   2.196       .  S
Zn450       O462   2.054       .  S
O452        C464   1.271       .  A
O453        C465   1.275       .  A
O454        C466   1.277   1_554  A
O455        C464   1.275       .  A
O456        C466   1.280       .  A
O457        C465   1.273   1_554  A
O458        C467   1.276       .  A
O459        C468   1.280   1_556  A
O460        C467   1.271       .  A
O461        C468   1.290       .  A
O462        C469   1.280       .  A
O463        C469   1.270   1_556  A
C464       C1639   1.410       .  S
C465       C1724   1.415       .  S
C466       C1648   1.508       .  S
C467       C1637   1.412       .  S
C468       C1715   1.525       .  S
C469       C1642   1.430       .  S
Zn470       O474   1.966   1_554  S
Zn470       O475   2.148       .  S
Zn470       O479   2.014       .  S
Zn470       O486   2.005       .  S
Zn471       O474   1.998       .  S
Zn471       O476   1.998       .  S
Zn471       O478   2.189       .  S
Zn471       O482   2.053       .  S
Zn472       O474   1.968       .  S
Zn472       O477   1.982       .  S
Zn472       O480   1.955       .  S
Zn472       O483   2.119       .  S
Zn473       O474   1.972   1_554  S
Zn473       O481   2.141       .  S
Zn473       O484   1.979       .  S
Zn473       O485   1.957       .  S
O475        C487   1.282   1_554  A
O476        C488   1.275       .  A
O477        C489   1.272       .  A
O478        C487   1.289       .  A
O479        C489   1.277   1_554  A
O480        C488   1.270       .  A
O481        C490   1.279       .  A
O482        C491   1.280   1_556  A
O483        C490   1.276   1_556  A
O484        C491   1.270       .  A
O485        C492   1.271       .  A
O486        C492   1.276       .  A
C487       C1717   1.526       .  S
C488       C1633   1.405       .  S
C489       C1708   1.416       .  S
C490       C1646   1.507       .  S
C491       C1635   1.432       .  S
C492       C1632   1.408       .  S
N493        C498   1.352       .  A
N493        C497   1.363       .  A
N493        H525   1.037       .  S
N494        C501   1.360       .  A
N494        C502   1.350       .  A
N495        C500   1.365       .  A
N495        C499   1.355       .  A
N495        H526   1.037       .  S
N496        C503   1.352       .  A
N496        C504   1.362       .  A
C497        C505   1.383       .  A
C497        C513   1.423       .  A
C498        C514   1.426   1_556  A
C498        C506   1.393       .  A
C499        C507   1.391       .  A
C499        C516   1.428       .  A
C500        C515   1.427       .  A
C500        C508   1.384       .  A
C501        C513   1.420       .  A
C501        C509   1.383       .  A
C502        C516   1.423   1_556  A
C502        C510   1.391       .  A
C503        C511   1.391       .  A
C503        C514   1.426       .  A
C504        C512   1.384       .  A
C504        C515   1.426       .  A
C505        C506   1.379       .  A
C505        H517   1.082       .  S
C506        H518   1.082       .  S
C507        C508   1.380       .  A
C507        H519   1.082       .  S
C508        H520   1.082       .  S
C509        C510   1.375       .  A
C509        H521   1.082       .  S
C510        H522   1.082       .  S
C511        C512   1.380       .  A
C511        H523   1.082       .  S
C512        H524   1.082       .  S
C513       C1628   1.486       .  S
C514       C1636   1.450       .  S
C515       C1625   1.495       .  S
C516       C1629   1.452       .  S
Zn527       O531   1.968       .  S
Zn527       O532   1.989       .  S
Zn527       O536   1.933       .  S
Zn527       O543   2.128       .  S
Zn528       O531   1.993   1_554  S
Zn528       O533   2.176       .  S
Zn528       O535   2.060       .  S
Zn528       O539   1.957       .  S
Zn529       O531   1.962       .  S
Zn529       O534   2.015       .  S
Zn529       O537   2.152       .  S
Zn529       O540   2.003       .  S
Zn530       O531   1.966   1_554  S
Zn530       O538   2.000       .  S
Zn530       O541   2.011       .  S
Zn530       O542   2.155       .  S
O532        C544   1.272   1_556  A
O533        C545   1.287   1_554  A
O534        C546   1.278       .  A
O535        C544   1.282       .  A
O536        C546   1.266       .  A
O537        C545   1.282       .  A
O538        C547   1.275   1_554  A
O539        C548   1.269       .  A
O540        C547   1.275       .  A
O541        C548   1.279       .  A
O542        C549   1.282   1_554  A
O543        C549   1.278       .  A
C544       C1630   1.435       .  S
C545       C1731   1.524       .  S
C546       C1621   1.402       .  S
C547       C1710   1.419       .  S
C548       C1620   1.408       .  S
C549       C1623   1.513       .  S
N550        C555   1.363       .  A
N550        C554   1.373       .  A
N550        H582   1.031       .  S
N551        C558   1.369       .  A
N551        C559   1.362       .  A
N552        C557   1.373       .  A
N552        C556   1.363       .  A
N552        H583   1.035       .  S
N553        C560   1.362       .  A
N553        C561   1.368       .  A
C554        C562   1.386       .  A
C554        C570   1.448   1_554  A
C555        C571   1.446       .  A
C555        C563   1.390       .  A
C556        C564   1.391       .  A
C556        C573   1.443       .  A
C557        C572   1.442       .  A
C557        C565   1.385       .  A
C558        C570   1.443       .  A
C558        C566   1.385       .  A
C559        C573   1.442       .  A
C559        C567   1.390       .  A
C560        C568   1.390       .  A
C560        C571   1.441       .  A
C561        C569   1.384       .  A
C561        C572   1.438   1_554  A
C562        C563   1.386       .  A
C562        H574   1.082       .  S
C563        H575   1.082       .  S
C564        C565   1.383       .  A
C564        H576   1.082       .  S
C565        H577   1.082       .  S
C566        C567   1.383       .  A
C566        H578   1.082       .  S
C567        H579   1.082       .  S
C568        C569   1.379       .  A
C568        H580   1.082       .  S
C569        H581   1.082       .  S
C570       C1624   1.523       .  S
C571       C1613   1.488       .  S
C572       C1618   1.518       .  S
C573       C1615   1.487       .  S
Zn584       O588   1.972   1_556  S
Zn584       O589   2.154       .  S
Zn584       O593   1.967       .  S
Zn584       O600   1.994       .  S
Zn585       O588   1.955       .  S
Zn585       O590   1.990       .  S
Zn585       O592   2.107       .  S
Zn585       O596   1.963       .  S
Zn586       O588   1.947   1_556  S
Zn586       O591   1.988       .  S
Zn586       O594   2.002       .  S
Zn586       O597   2.128       .  S
Zn587       O588   1.994       .  S
Zn587       O595   2.214       .  S
Zn587       O598   2.014       .  S
Zn587       O599   2.053       .  S
O589        C601   1.282       .  A
O590        C602   1.274       .  A
O591        C603   1.274       .  A
O592        C601   1.275   1_554  A
O593        C603   1.272       .  A
O594        C602   1.276   1_556  A
O595        C604   1.293       .  A
O596        C605   1.271       .  A
O597        C604   1.280   1_556  A
O598        C605   1.278       .  A
O599        C606   1.281       .  A
O600        C606   1.273   1_556  A
C601       C1617   1.507       .  S
C602       C1725   1.416       .  S
C603       C1607   1.405       .  S
C604       C1733   1.528       .  S
C605       C1609   1.414       .  S
C606       C1611   1.435       .  S
N607        C612   1.364       .  A
N607        C611   1.353       .  A
N607        H639   1.037       .  S
N608        C615   1.350       .  A
N608        C616   1.360       .  A
N609        C614   1.354       .  A
N609        C613   1.365       .  A
N609        H640   1.038       .  S
N610        C617   1.361       .  A
N610        C618   1.350       .  A
C611        C619   1.393       .  A
C611        C627   1.427   1_556  A
C612        C628   1.424       .  A
C612        C620   1.383       .  A
C613        C621   1.384       .  A
C613        C630   1.427       .  A
C614        C629   1.429       .  A
C614        C622   1.392       .  A
C615        C627   1.422       .  A
C615        C623   1.390       .  A
C616        C630   1.422       .  A
C616        C624   1.384       .  A
C617        C625   1.383       .  A
C617        C628   1.422       .  A
C618        C626   1.391       .  A
C618        C629   1.425   1_556  A
C619        C620   1.379       .  A
C619        H631   1.082       .  S
C620        H632   1.082       .  S
C621        C622   1.382       .  A
C621        H633   1.082       .  S
C622        H634   1.082       .  S
C623        C624   1.378       .  A
C623        H635   1.082       .  S
C624        H636   1.082       .  S
C625        C626   1.377       .  A
C625        H637   1.082       .  S
C626        H638   1.082       .  S
C627       C1641   1.449       .  S
C628       C1606   1.491       .  S
C629       C1612   1.452       .  S
C630       C1603   1.493       .  S
Zn641       O645   1.945       .  S
Zn641       O646   1.975       .  S
Zn641       O650   1.987       .  S
Zn641       O657   2.065       .  S
Zn642       O645   1.950       .  S
Zn642       O647   2.091       .  S
Zn642       O649   1.992       .  S
Zn642       O653   2.004       .  S
Zn643       O645   1.949       .  S
Zn643       O648   2.000       .  S
Zn643       O651   2.069       .  S
Zn643       O654   1.987       .  S
Zn644       O645   1.962       .  S
Zn644       O652   1.963       .  S
Zn644       O655   2.033       .  S
Zn644       O656   2.087       .  S
O646        C658   1.270       .  A
O647        C659   1.278       .  A
O648        C660   1.271       .  A
O649        C658   1.273       .  A
O650        C660   1.270       .  A
O651        C659   1.275       .  A
O652        C661   1.268       .  A
O653        C662   1.272       .  A
O654        C661   1.273       .  A
O655        C662   1.276       .  A
O656        C663   1.278       .  A
O657        C663   1.274       .  A
C658       C1597   1.411       .  S
C659       C1627   1.474       .  S
C660       C1595   1.418       .  S
C661       C1599   1.406       .  S
C662       C1601   1.434       .  S
C663       C1593   1.472       .  S
Zn664       O668   2.004       .  S
Zn664       O669   2.127       .  S
Zn664       O673   2.098       .  S
Zn664       O680   1.978       .  S
Zn665       O668   1.997       .  S
Zn665       O670   2.025       .  S
Zn665       O672   2.106       .  S
Zn665       O676   2.089       .  S
Zn666       O668   2.000       .  S
Zn666       O671   2.062       .  S
Zn666       O674   1.977       .  S
Zn666       O677   2.108       .  S
Zn667       O668   2.003       .  S
Zn667       O675   2.170       .  S
Zn667       O678   2.125       .  S
Zn667       O679   2.005       .  S
O669        C681   1.282       .  A
O670        C682   1.280       .  A
O671        C683   1.275       .  A
O672        C681   1.278       .  A
O673        C683   1.280       .  A
O674        C682   1.273       .  A
O675        C684   1.289       .  A
O676        C685   1.281       .  A
O677        C684   1.279       .  A
O678        C685   1.286       .  A
O679        C686   1.277       .  A
O680        C686   1.273       .  A
C681       C1587   1.496       .  S
C682       C1589   1.416       .  S
C683       C1616   1.473       .  S
C684       C1660   1.507       .  S
C685       C1585   1.485       .  S
C686       C1592   1.411       .  S
Zn687       O691   1.942       .  S
Zn687       O692   1.999       .  S
Zn687       O696   2.083       .  S
Zn687       O703   1.997       .  S
Zn688       O691   1.949       .  S
Zn688       O693   1.994       .  S
Zn688       O695   1.998       .  S
Zn688       O699   2.079       .  S
Zn689       O691   1.968       .  S
Zn689       O694   2.109       .  S
Zn689       O697   1.970       .  S
Zn689       O700   2.027       .  S
Zn690       O691   1.950       .  S
Zn690       O698   2.001       .  S
Zn690       O701   2.097       .  S
Zn690       O702   1.969       .  S
O692        C704   1.274       .  A
O693        C705   1.274       .  A
O694        C706   1.280       .  A
O695        C704   1.273       .  A
O696        C706   1.275       .  A
O697        C705   1.269       .  A
O698        C707   1.273       .  A
O699        C708   1.275       .  A
O700        C707   1.276       .  A
O701        C708   1.277       .  A
O702        C709   1.270       .  A
O703        C709   1.274       .  A
C704       C1577   1.419       .  S
C705       C1581   1.410       .  S
C706       C1575   1.483       .  S
C707       C1583   1.431       .  S
C708       C1605   1.480       .  S
C709       C1579   1.412       .  S
Zn710       O714   2.011       .  S
Zn710       O715   2.011       .  S
Zn710       O719   2.171       .  S
Zn710       O726   2.139       .  S
Zn711       O714   2.010       .  S
Zn711       O716   2.102       .  S
Zn711       O718   1.980       .  S
Zn711       O722   2.170       .  S
Zn712       O714   2.002       .  S
Zn712       O717   2.106       .  S
Zn712       O720   2.056       .  S
Zn712       O723   1.999       .  S
Zn713       O714   1.994       .  S
Zn713       O721   1.964       .  S
Zn713       O724   2.106       .  S
Zn713       O725   2.054       .  S
O715        C727   1.278       .  A
O716        C728   1.282       .  A
O717        C729   1.279       .  A
O718        C727   1.274       .  A
O719        C729   1.288       .  A
O720        C728   1.275       .  A
O721        C730   1.272       .  A
O722        C731   1.287       .  A
O723        C730   1.276       .  A
O724        C731   1.277       .  A
O725        C732   1.275       .  A
O726        C732   1.287       .  A
C727       C1572   1.409       .  S
C728       C1565   1.471       .  S
C729       C1567   1.507       .  S
C730       C1569   1.405       .  S
C731       C1573   1.510       .  S
C732       C1604   1.481       .  S
Zn733       O737   1.963       .  S
Zn733       O738   1.980       .  S
Zn733       O742   2.089       .  S
Zn733       O749   1.978       .  S
Zn734       O737   1.976       .  S
Zn734       O739   2.059       .  S
Zn734       O741   1.982       .  S
Zn734       O745   2.127       .  S
Zn735       O737   1.952       .  S
Zn735       O740   2.074       .  S
Zn735       O743   1.992       .  S
Zn735       O746   1.949       .  S
Zn736       O737   1.953       .  S
Zn736       O744   1.988       .  S
Zn736       O747   2.094       .  S
Zn736       O748   1.962       .  S
O738        C750   1.273       .  A
O739        C751   1.281       .  A
O740        C752   1.272       .  A
O741        C750   1.270       .  A
O742        C752   1.275       .  A
O743        C751   1.272       .  A
O744        C753   1.272       .  A
O745        C754   1.283       .  A
O746        C753   1.266       .  A
O747        C754   1.277       .  A
O748        C755   1.267       .  A
O749        C755   1.268       .  A
C750       C1561   1.408       .  S
C751       C1684   1.436       .  S
C752       C1644   1.479       .  S
C753       C1563   1.404       .  S
C754       C1558   1.491       .  S
C755       C1559   1.406       .  S
Zn756       O760   2.000       .  S
Zn756       O761   1.955       .  S
Zn756       O765   2.062       .  S
Zn756       O772   2.102       .  S
Zn757       O760   1.990       .  S
Zn757       O762   2.131       .  S
Zn757       O764   2.032       .  S
Zn757       O768   2.070       .  S
Zn758       O760   2.002       .  S
Zn758       O763   2.141       .  S
Zn758       O766   2.191       .  S
Zn758       O769   2.026       .  S
Zn759       O760   2.005       .  S
Zn759       O767   1.979       .  S
Zn759       O770   2.108       .  S
Zn759       O771   2.159       .  S
O761        C773   1.270       .  A
O762        C774   1.284       .  A
O763        C775   1.287       .  A
O764        C773   1.282       .  A
O765        C775   1.276       .  A
O766        C774   1.293       .  A
O767        C776   1.274       .  A
O768        C777   1.277       .  A
O769        C776   1.281       .  A
O770        C777   1.283       .  A
O771        C778   1.286       .  A
O772        C778   1.277       .  A
C773       C1553   1.411       .  S
C774       C1549   1.520       .  S
C775       C1626   1.484       .  S
C776       C1551   1.415       .  S
C777       C1547   1.477       .  S
C778       C1555   1.504       .  S
Zn779       O783   1.956       .  S
Zn779       O784   1.940       .  S
Zn779       O788   1.984       .  S
Zn779       O795   2.056       .  S
Zn780       O783   1.956       .  S
Zn780       O785   2.100       .  S
Zn780       O787   1.982       .  S
Zn780       O791   1.972       .  S
Zn781       O783   1.979       .  S
Zn781       O786   2.055       .  S
Zn781       O789   2.131       .  S
Zn781       O792   1.986       .  S
Zn782       O783   1.968       .  S
Zn782       O790   1.984       .  S
Zn782       O793   1.988       .  S
Zn782       O794   2.094       .  S
O784        C796   1.265       .  A
O785        C797   1.278       .  A
O786        C798   1.279       .  A
O787        C796   1.272       .  A
O788        C798   1.270       .  A
O789        C797   1.284       .  A
O790        C799   1.274       .  A
O791        C800   1.268       .  A
O792        C799   1.271       .  A
O793        C800   1.269       .  A
O794        C801   1.275       .  A
O795        C801   1.269       .  A
C796       C1543   1.400       .  S
C797       C1539   1.495       .  S
C798       C1682   1.434       .  S
C799       C1545   1.410       .  S
C800       C1541   1.412       .  S
C801       C1614   1.474       .  S
N802        C807   1.370       .  A
N802        C806   1.353       .  A
N802        H834   1.037       .  S
N803        C810   1.352       .  A
N803        C811   1.366       .  A
N804        C809   1.352       .  A
N804        C808   1.370       .  A
N804        H835   1.037       .  S
N805        C812   1.366       .  A
N805        C813   1.352       .  A
C806        C814   1.394       .  A
C806        C822   1.433       .  A
C807        C823   1.431       .  A
C807        C815   1.383       .  A
C808        C816   1.383       .  A
C808        C825   1.429   1_545  A
C809        C824   1.431       .  A
C809        C817   1.394       .  A
C810        C822   1.430       .  A
C810        C818   1.392       .  A
C811        C825   1.428       .  A
C811        C819   1.382       .  A
C812        C820   1.382       .  A
C812        C823   1.427   1_545  A
C813        C821   1.393       .  A
C813        C824   1.430       .  A
C814        C815   1.380       .  A
C814        H826   1.082       .  S
C815        H827   1.082       .  S
C816        C817   1.380       .  A
C816        H828   1.082       .  S
C817        H829   1.082       .  S
C818        C819   1.379       .  A
C818        H830   1.082       .  S
C819        H831   1.082       .  S
C820        C821   1.378       .  A
C820        H832   1.082       .  S
C821        H833   1.082       .  S
C822       C1602   1.451       .  S
C823       C1538   1.510       .  S
C824       C1584   1.448       .  S
C825       C1535   1.509       .  S
Zn836       O840   1.965       .  S
Zn836       O841   2.117       .  S
Zn836       O845   1.984       .  S
Zn836       O852   1.970       .  S
Zn837       O840   1.973   1_545  S
Zn837       O842   1.997       .  S
Zn837       O844   2.125       .  S
Zn837       O848   2.011       .  S
Zn838       O840   1.987   1_545  S
Zn838       O843   2.039   1_545  S
Zn838       O846   2.006       .  S
Zn838       O849   2.160       .  S
Zn839       O840   1.967       .  S
Zn839       O847   2.119       .  S
Zn839       O850   1.981       .  S
Zn839       O851   1.989       .  S
O841        C853   1.278       .  A
O842        C854   1.276       .  A
O843        C855   1.279       .  A
O844        C853   1.279   1_545  A
O845        C855   1.271       .  A
O846        C854   1.274       .  A
O847        C856   1.279       .  A
O848        C857   1.274       .  A
O849        C856   1.286   1_545  A
O850        C857   1.273   1_565  A
O851        C858   1.270       .  A
O852        C858   1.271       .  A
C853       C1537   1.500       .  S
C854       C1531   1.418       .  S
C855       C1533   1.427       .  S
C856       C1743   1.509       .  S
C857       C1736   1.417       .  S
C858       C1529   1.409       .  S
N859        C864   1.347       .  A
N859        C863   1.350       .  A
N859        H891   1.039       .  S
N860        C867   1.348       .  A
N860        C868   1.349       .  A
N861        C866   1.354       .  A
N861        C865   1.350       .  A
N861        H892   1.039       .  S
N862        C869   1.346       .  A
N862        C870   1.343       .  A
C863        C871   1.388       .  A
C863        C879   1.409       .  A
C864        C880   1.405       .  A
C864        C872   1.386       .  A
C865        C873   1.388       .  A
C865        C882   1.414       .  A
C866        C881   1.412       .  A
C866        C874   1.386       .  A
C867        C879   1.410   1_565  A
C867        C875   1.388       .  A
C868        C882   1.407       .  A
C868        C876   1.386       .  A
C869        C877   1.385       .  A
C869        C880   1.401       .  A
C870        C878   1.388       .  A
C870        C881   1.404   1_545  A
C871        C872   1.378       .  A
C871        H883   1.082       .  S
C872        H884   1.082       .  S
C873        C874   1.377       .  A
C873        H885   1.082       .  S
C874        H886   1.082       .  S
C875        C876   1.375       .  A
C875        H887   1.082       .  S
C876        H888   1.082       .  S
C877        C878   1.375       .  A
C877        H889   1.082       .  S
C878        H890   1.082       .  S
C879       C1527   1.443       .  S
C880       C1524   1.436       .  S
C881       C1534   1.443       .  S
C882       C1525   1.444       .  S
Zn893       O897   1.991   1_565  S
Zn893       O898   2.148       .  S
Zn893       O902   2.008       .  S
Zn893       O909   1.992       .  S
Zn894       O897   1.978       .  S
Zn894       O899   1.964       .  S
Zn894       O901   2.140       .  S
Zn894       O905   1.999       .  S
Zn895       O897   1.981       .  S
Zn895       O900   1.965       .  S
Zn895       O903   1.987       .  S
Zn895       O906   2.137       .  S
Zn896       O897   1.998   1_565  S
Zn896       O904   2.173       .  S
Zn896       O907   2.030   1_565  S
Zn896       O908   2.005       .  S
O898        C910   1.280   1_565  A
O899        C911   1.270       .  A
O900        C912   1.270   1_545  A
O901        C910   1.279       .  A
O902        C912   1.273       .  A
O903        C911   1.272       .  A
O904        C913   1.286   1_565  A
O905        C914   1.274       .  A
O906        C913   1.280       .  A
O907        C914   1.278       .  A
O908        C915   1.275       .  A
O909        C915   1.276       .  A
C910       C1522   1.515       .  S
C911       C1517   1.406       .  S
C912       C1737   1.414       .  S
C913       C1747   1.519       .  S
C914       C1528   1.426       .  S
C915       C1519   1.415       .  S
N916        C921   1.371       .  A
N916        C920   1.372       .  A
N916        H948   1.028       .  S
N917        C924   1.373       .  A
N917        C925   1.372       .  A
N918        C923   1.372       .  A
N918        C922   1.371       .  A
N918        H949   1.027       .  S
N919        C926   1.369       .  A
N919        C927   1.369       .  A
C920        C928   1.389       .  A
C920        C936   1.453   1_565  A
C921        C937   1.452       .  A
C921        C929   1.388       .  A
C922        C930   1.389       .  A
C922        C939   1.454       .  A
C923        C938   1.453       .  A
C923        C931   1.388       .  A
C924        C936   1.455       .  A
C924        C932   1.387       .  A
C925        C939   1.455       .  A
C925        C933   1.388       .  A
C926        C934   1.388       .  A
C926        C937   1.447       .  A
C927        C935   1.387       .  A
C927        C938   1.447   1_565  A
C928        C929   1.387       .  A
C928        H940   1.082       .  S
C929        H941   1.082       .  S
C930        C931   1.388       .  A
C930        H942   1.082       .  S
C931        H943   1.082       .  S
C932        C933   1.387       .  A
C932        H944   1.082       .  S
C933        H945   1.082       .  S
C934        C935   1.382       .  A
C934        H946   1.082       .  S
C935        H947   1.082       .  S
C936       C1521   1.525       .  S
C937       C1556   1.516       .  S
C938       C1516   1.519       .  S
C939       C1574   1.521       .  S
Zn950       O954   1.974       .  S
Zn950       O955   1.995       .  S
Zn950       O959   2.125       .  S
Zn950       O966   1.950       .  S
Zn951       O954   1.996   1_565  S
Zn951       O956   2.004       .  S
Zn951       O958   2.019   1_565  S
Zn951       O962   2.157       .  S
Zn952       O954   1.989   1_565  S
Zn952       O957   2.138       .  S
Zn952       O960   1.992       .  S
Zn952       O963   2.005       .  S
Zn953       O954   1.980       .  S
Zn953       O961   1.980       .  S
Zn953       O964   2.153       .  S
Zn953       O965   2.010       .  S
O955        C967   1.273       .  A
O956        C968   1.274       .  A
O957        C969   1.279   1_565  A
O958        C967   1.276       .  A
O959        C969   1.277       .  A
O960        C968   1.275       .  A
O961        C970   1.272   1_545  A
O962        C971   1.284   1_565  A
O963        C970   1.273       .  A
O964        C971   1.283       .  A
O965        C972   1.275       .  A
O966        C972   1.268       .  A
C967       C1513   1.423       .  S
C968       C1509   1.415       .  S
C969       C1515   1.508       .  S
C970       C1722   1.415       .  S
C971       C1751   1.518       .  S
C972       C1511   1.409       .  S
N973        C978   1.351       .  A
N973        C977   1.351       .  A
N973       H1005   1.039       .  S
N974        C981   1.347       .  A
N974        C982   1.351       .  A
N975        C980   1.350       .  A
N975        C979   1.349       .  A
N975       H1006   1.039       .  S
N976        C983   1.349       .  A
N976        C984   1.345       .  A
C977        C985   1.389       .  A
C977        C993   1.411       .  A
C978        C994   1.411       .  A
C978        C986   1.386       .  A
C979        C987   1.387       .  A
C979        C996   1.408       .  A
C980        C995   1.408       .  A
C980        C988   1.388       .  A
C981        C993   1.411   1_565  A
C981        C989   1.389       .  A
C982        C996   1.406       .  A
C982        C990   1.385       .  A
C983        C991   1.385       .  A
C983        C994   1.406       .  A
C984        C992   1.389       .  A
C984        C995   1.409   1_545  A
C985        C986   1.378       .  A
C985        H997   1.082       .  S
C986        H998   1.082       .  S
C987        C988   1.376       .  A
C987        H999   1.082       .  S
C988       H1000   1.082       .  S
C989        C990   1.375       .  A
C989       H1001   1.082       .  S
C990       H1002   1.082       .  S
C991        C992   1.375       .  A
C991       H1003   1.082       .  S
C992       H1004   1.082       .  S
C993       C1514   1.441       .  S
C994       C1503   1.448       .  S
C995       C1507   1.438       .  S
C996       C1506   1.444       .  S
Zn1007     O1011   1.977   1_545  S
Zn1007     O1012   2.016       .  S
Zn1007     O1016   2.139       .  S
Zn1007     O1023   2.014       .  S
Zn1008     O1011   1.974   1_545  S
Zn1008     O1013   1.971   1_545  S
Zn1008     O1015   1.990       .  S
Zn1008     O1019   2.134       .  S
Zn1009     O1011   1.991       .  S
Zn1009     O1014   2.143       .  S
Zn1009     O1017   2.030       .  S
Zn1009     O1020   1.988       .  S
Zn1010     O1011   1.974       .  S
Zn1010     O1018   1.963       .  S
Zn1010     O1021   2.102       .  S
Zn1010     O1022   1.949   1_565  S
O1012      C1024   1.277       .  A
O1013      C1025   1.271       .  A
O1014      C1026   1.282       .  A
O1015      C1024   1.272       .  A
O1016      C1026   1.281   1_545  A
O1017      C1025   1.276       .  A
O1018      C1027   1.268       .  A
O1019      C1028   1.279       .  A
O1020      C1027   1.272       .  A
O1021      C1028   1.275   1_565  A
O1022      C1029   1.267       .  A
O1023      C1029   1.275       .  A
C1024      C1499   1.420       .  S
C1025      C1508   1.420       .  S
C1026      C1739   1.511       .  S
C1027      C1501   1.406       .  S
C1028      C1536   1.499       .  S
C1029      C1719   1.410       .  S
Zn1030     O1034   1.900       .  S
Zn1030     O1035   2.005       .  S
Zn1030     O1039   1.985       .  S
Zn1030     O1046   2.020       .  S
Zn1031     O1034   1.902       .  S
Zn1031     O1036   2.067       .  S
Zn1031     O1038   2.018       .  S
Zn1031     O1042   2.009       .  S
Zn1032     O1034   1.897       .  S
Zn1032     O1037   1.935       .  S
Zn1032     O1040   1.949       .  S
Zn1032     O1043   1.973       .  S
Zn1033     O1034   1.913       .  S
Zn1033     O1041   1.991       .  S
Zn1033     O1044   1.956       .  S
Zn1033     O1045   1.992       .  S
O1035      C1047   1.274       .  A
O1036      C1048   1.278       .  A
O1037      C1049   1.262       .  A
O1038      C1047   1.274       .  A
O1039      C1049   1.273       .  A
O1040      C1048   1.264       .  A
O1041      C1050   1.270       .  A
O1042      C1051   1.278       .  A
O1043      C1050   1.265       .  A
O1044      C1051   1.266       .  A
O1045      C1052   1.268       .  A
O1046      C1052   1.271       .  A
C1047      C1493   1.429       .  S
C1048      C1491   1.431       .  S
C1049      C1496   1.401       .  S
C1050      C1672   1.413       .  S
C1051      C1497   1.409       .  S
C1052      C1505   1.430       .  S
Zn1053     O1057   1.912       .  S
Zn1053     O1058   1.993       .  S
Zn1053     O1062   1.979       .  S
Zn1053     O1069   1.994       .  S
Zn1054     O1057   1.930       .  S
Zn1054     O1059   1.991       .  S
Zn1054     O1061   2.046       .  S
Zn1054     O1065   1.979       .  S
Zn1055     O1057   1.921       .  S
Zn1055     O1060   1.957       .  S
Zn1055     O1063   1.963       .  S
Zn1055     O1066   2.010       .  S
Zn1056     O1057   1.925       .  S
Zn1056     O1064   2.010       .  S
Zn1056     O1067   1.990       .  S
Zn1056     O1068   2.016       .  S
O1058      C1070   1.267       .  A
O1059      C1071   1.268       .  A
O1060      C1072   1.267       .  A
O1061      C1070   1.274       .  A
O1062      C1072   1.269       .  A
O1063      C1071   1.265       .  A
O1064      C1073   1.270       .  A
O1065      C1074   1.272       .  A
O1066      C1073   1.269       .  A
O1067      C1074   1.271       .  A
O1068      C1075   1.275       .  A
O1069      C1075   1.273       .  A
C1070      C1483   1.439       .  S
C1071      C1694   1.411       .  S
C1072      C1487   1.407       .  S
C1073      C1504   1.433       .  S
C1074      C1490   1.414       .  S
C1075      C1486   1.425       .  S
Zn1076     O1080   1.899       .  S
Zn1076     O1081   2.060       .  S
Zn1076     O1085   2.015       .  S
Zn1076     O1092   2.020       .  S
Zn1077     O1080   1.916       .  S
Zn1077     O1082   1.993       .  S
Zn1077     O1084   1.977       .  S
Zn1077     O1088   1.928       .  S
Zn1078     O1080   1.902       .  S
Zn1078     O1083   1.941       .  S
Zn1078     O1086   1.988       .  S
Zn1078     O1089   1.959       .  S
Zn1079     O1080   1.907       .  S
Zn1079     O1087   2.041       .  S
Zn1079     O1090   1.991       .  S
Zn1079     O1091   2.011       .  S
O1081      C1093   1.276       .  A
O1082      C1094   1.269       .  A
O1083      C1095   1.265       .  A
O1084      C1093   1.266       .  A
O1085      C1095   1.279       .  A
O1086      C1094   1.267       .  A
O1087      C1096   1.272       .  A
O1088      C1097   1.262       .  A
O1089      C1096   1.265       .  A
O1090      C1097   1.276       .  A
O1091      C1098   1.275       .  A
O1092      C1098   1.276       .  A
C1093      C1476   1.438       .  S
C1094      C1670   1.419       .  S
C1095      C1479   1.407       .  S
C1096      C1526   1.427       .  S
C1097      C1481   1.399       .  S
C1098      C1478   1.430       .  S
Zn1099     O1103   1.917       .  S
Zn1099     O1104   1.945       .  S
Zn1099     O1108   1.976       .  S
Zn1099     O1115   1.950       .  S
Zn1100     O1103   1.912       .  S
Zn1100     O1105   2.010       .  S
Zn1100     O1107   1.985       .  S
Zn1100     O1111   2.001       .  S
Zn1101     O1103   1.923       .  S
Zn1101     O1106   2.005       .  S
Zn1101     O1109   1.995       .  S
Zn1101     O1112   1.984       .  S
Zn1102     O1103   1.922       .  S
Zn1102     O1110   1.985       .  S
Zn1102     O1113   2.019       .  S
Zn1102     O1114   1.999       .  S
O1104      C1116   1.263       .  A
O1105      C1117   1.274       .  A
O1106      C1118   1.269       .  A
O1107      C1116   1.271       .  A
O1108      C1118   1.264       .  A
O1109      C1117   1.271       .  A
O1110      C1119   1.273       .  A
O1111      C1120   1.269       .  A
O1112      C1119   1.270       .  A
O1113      C1120   1.272       .  A
O1114      C1121   1.268       .  A
O1115      C1121   1.262       .  A
C1116      C1471   1.403       .  S
C1117      C1467   1.424       .  S
C1118      C1523   1.422       .  S
C1119      C1473   1.413       .  S
C1120      C1470   1.432       .  S
C1121      C1696   1.411       .  S
Zn1122     O1126   1.856       .  S
Zn1122     O1127   1.935       .  S
Zn1122     O1131   1.943       .  S
Zn1122     O1138   1.903       .  S
Zn1123     O1126   1.889       .  S
Zn1123     O1128   1.974       .  S
Zn1123     O1130   1.985       .  S
Zn1123     O1134   1.985       .  S
Zn1124     O1126   1.900       .  S
Zn1124     O1129   2.000       .  S
Zn1124     O1132   1.979       .  S
Zn1124     O1135   1.988       .  S
Zn1125     O1126   1.894       .  S
Zn1125     O1133   1.950       .  S
Zn1125     O1136   1.971       .  S
Zn1125     O1137   2.013       .  S
O1127      C1139   1.262       .  A
O1128      C1140   1.270       .  A
O1129      C1141   1.272       .  A
O1130      C1139   1.270       .  A
O1131      C1141   1.264       .  A
O1132      C1140   1.268       .  A
O1133      C1142   1.265       .  A
O1134      C1143   1.269       .  A
O1135      C1142   1.271       .  A
O1136      C1143   1.271       .  A
O1137      C1144   1.270       .  A
O1138      C1144   1.260       .  A
C1139      C1701   1.401       .  S
C1140      C1474   1.410       .  S
C1141      C1518   1.407       .  S
C1142      C1570   1.406       .  S
C1143      C1546   1.410       .  S
C1144      C1610   1.405       .  S
Zn1145     O1149   1.892       .  S
Zn1145     O1150   1.956       .  S
Zn1145     O1154   1.986       .  S
Zn1145     O1161   1.995       .  S
Zn1146     O1149   1.892       .  S
Zn1146     O1151   1.983       .  S
Zn1146     O1153   1.981       .  S
Zn1146     O1157   1.970       .  S
Zn1147     O1149   1.866       .  S
Zn1147     O1152   1.964       .  S
Zn1147     O1155   1.969       .  S
Zn1147     O1158   1.941       .  S
Zn1148     O1149   1.882       .  S
Zn1148     O1156   2.004       .  S
Zn1148     O1159   1.959       .  S
Zn1148     O1160   1.958       .  S
O1150      C1162   1.265       .  A
O1151      C1163   1.272       .  A
O1152      C1164   1.266       .  A
O1153      C1162   1.269       .  A
O1154      C1164   1.271       .  A
O1155      C1163   1.267       .  A
O1156      C1165   1.270       .  A
O1157      C1166   1.266       .  A
O1158      C1165   1.266       .  A
O1159      C1166   1.268       .  A
O1160      C1167   1.265       .  A
O1161      C1167   1.273       .  A
C1162      C1638   1.409       .  S
C1163      C1562   1.408       .  S
C1164      C1571   1.410       .  S
C1165      C1489   1.409       .  S
C1166      C1699   1.404       .  S
C1167      C1512   1.410       .  S
Zn1168     O1172   1.848       .  S
Zn1168     O1173   1.935       .  S
Zn1168     O1177   1.931       .  S
Zn1168     O1184   1.925       .  S
Zn1169     O1172   1.895       .  S
Zn1169     O1174   1.968       .  S
Zn1169     O1176   1.997       .  S
Zn1169     O1180   2.003       .  S
Zn1170     O1172   1.887       .  S
Zn1170     O1175   2.021       .  S
Zn1170     O1178   1.977       .  S
Zn1170     O1181   1.990       .  S
Zn1171     O1172   1.892       .  S
Zn1171     O1179   1.983       .  S
Zn1171     O1182   1.957       .  S
Zn1171     O1183   1.989       .  S
O1173      C1185   1.263       .  A
O1174      C1186   1.271       .  A
O1175      C1187   1.272       .  A
O1176      C1185   1.271       .  A
O1177      C1187   1.261       .  A
O1178      C1186   1.269       .  A
O1179      C1188   1.269       .  A
O1180      C1189   1.270       .  A
O1181      C1188   1.273       .  A
O1182      C1189   1.267       .  A
O1183      C1190   1.267       .  A
O1184      C1190   1.263       .  A
C1185      C1564   1.404       .  S
C1186      C1631   1.406       .  S
C1187      C1552   1.414       .  S
C1188      C1510   1.414       .  S
C1189      C1677   1.414       .  S
C1190      C1495   1.398       .  S
Zn1191     O1195   1.922       .  S
Zn1191     O1196   1.980       .  S
Zn1191     O1200   1.973       .  S
Zn1191     O1207   1.946       .  S
Zn1192     O1195   1.918       .  S
Zn1192     O1197   1.976       .  S
Zn1192     O1199   1.951       .  S
Zn1192     O1203   1.980       .  S
Zn1193     O1195   1.885       .  S
Zn1193     O1198   1.921       .  S
Zn1193     O1201   1.922       .  S
Zn1193     O1204   1.925       .  S
Zn1194     O1195   1.918       .  S
Zn1194     O1202   2.014       .  S
Zn1194     O1205   1.985       .  S
Zn1194     O1206   1.992       .  S
O1196      C1208   1.265       .  A
O1197      C1209   1.265       .  A
O1198      C1210   1.259       .  A
O1199      C1208   1.265       .  A
O1200      C1210   1.265       .  A
O1201      C1209   1.261       .  A
O1202      C1211   1.271       .  A
O1203      C1212   1.267       .  A
O1204      C1211   1.260       .  A
O1205      C1212   1.271       .  A
O1206      C1213   1.269       .  A
O1207      C1213   1.266       .  A
C1208      C1676   1.407       .  S
C1209      C1482   1.396       .  S
C1210      C1544   1.397       .  S
C1211      C1554   1.409       .  S
C1212      C1520   1.414       .  S
C1213      C1619   1.405       .  S
Zn1214     O1218   1.866       .  S
Zn1214     O1219   1.976       .  S
Zn1214     O1223   1.936       .  S
Zn1214     O1230   1.954       .  S
Zn1215     O1218   1.897       .  S
Zn1215     O1220   1.970       .  S
Zn1215     O1222   1.969       .  S
Zn1215     O1226   1.941       .  S
Zn1216     O1218   1.884       .  S
Zn1216     O1221   1.984       .  S
Zn1216     O1224   1.980       .  S
Zn1216     O1227   1.944       .  S
Zn1217     O1218   1.899       .  S
Zn1217     O1225   2.013       .  S
Zn1217     O1228   1.982       .  S
Zn1217     O1229   2.008       .  S
O1219      C1231   1.267       .  A
O1220      C1232   1.268       .  A
O1221      C1233   1.268       .  A
O1222      C1231   1.266       .  A
O1223      C1233   1.266       .  A
O1224      C1232   1.265       .  A
O1225      C1234   1.271       .  A
O1226      C1235   1.264       .  A
O1227      C1234   1.267       .  A
O1228      C1235   1.272       .  A
O1229      C1236   1.274       .  A
O1230      C1236   1.267       .  A
C1231      C1598   1.410       .  S
C1232      C1530   1.410       .  S
C1233      C1480   1.402       .  S
C1234      C1666   1.412       .  S
C1235      C1622   1.401       .  S
C1236      C1591   1.412       .  S
Zn1237     O1241   1.911       .  S
Zn1237     O1242   1.967       .  S
Zn1237     O1246   1.985       .  S
Zn1237     O1253   1.970       .  S
Zn1238     O1241   1.924       .  S
Zn1238     O1243   2.003       .  S
Zn1238     O1245   1.970       .  S
Zn1238     O1249   1.995       .  S
Zn1239     O1241   1.887       .  S
Zn1239     O1244   1.947       .  S
Zn1239     O1247   1.947       .  S
Zn1239     O1250   1.943       .  S
Zn1240     O1241   1.909       .  S
Zn1240     O1248   1.979       .  S
Zn1240     O1251   1.948       .  S
Zn1240     O1252   2.000       .  S
O1242      C1254   1.267       .  A
O1243      C1255   1.269       .  A
O1244      C1256   1.264       .  A
O1245      C1254   1.270       .  A
O1246      C1256   1.267       .  A
O1247      C1255   1.262       .  A
O1248      C1257   1.267       .  A
O1249      C1258   1.268       .  A
O1250      C1257   1.266       .  A
O1251      C1258   1.266       .  A
O1252      C1259   1.269       .  A
O1253      C1259   1.268       .  A
C1254      C1608   1.403       .  S
C1255      C1590   1.413       .  S
C1256      C1582   1.407       .  S
C1257      C1472   1.403       .  S
C1258      C1688   1.409       .  S
C1259      C1532   1.417       .  S
Zn1260     O1264   1.922       .  S
Zn1260     O1265   2.006       .  S
Zn1260     O1269   1.982       .  S
Zn1260     O1276   1.958       .  S
Zn1261     O1264   1.933       .  S
Zn1261     O1266   1.973       .  S
Zn1261     O1268   1.960       .  S
Zn1261     O1272   1.973       .  S
Zn1262     O1264   1.907       .  S
Zn1262     O1267   1.963       .  S
Zn1262     O1270   1.966       .  S
Zn1262     O1273   1.965       .  S
Zn1263     O1264   1.922       .  S
Zn1263     O1271   2.009       .  S
Zn1263     O1274   1.948       .  S
Zn1263     O1275   1.988       .  S
O1265      C1277   1.269       .  A
O1266      C1278   1.267       .  A
O1267      C1279   1.266       .  A
O1268      C1277   1.264       .  A
O1269      C1279   1.270       .  A
O1270      C1278   1.266       .  A
O1271      C1280   1.269       .  A
O1272      C1281   1.265       .  A
O1273      C1280   1.265       .  A
O1274      C1281   1.267       .  A
O1275      C1282   1.267       .  A
O1276      C1282   1.266       .  A
C1277      C1656   1.419       .  S
C1278      C1690   1.408       .  S
C1279      C1640   1.408       .  S
C1280      C1500   1.418       .  S
C1281      C1488   1.403       .  S
C1282      C1580   1.410       .  S
Zn1283     O1287   1.892       .  S
Zn1283     O1288   1.949       .  S
Zn1283     O1292   1.973       .  S
Zn1283     O1299   1.977       .  S
Zn1284     O1287   1.898       .  S
Zn1284     O1289   1.960       .  S
Zn1284     O1291   1.984       .  S
Zn1284     O1295   1.945       .  S
Zn1285     O1287   1.906       .  S
Zn1285     O1290   1.954       .  S
Zn1285     O1293   1.977       .  S
Zn1285     O1296   1.943       .  S
Zn1286     O1287   1.910       .  S
Zn1286     O1294   1.977       .  S
Zn1286     O1297   2.006       .  S
Zn1286     O1298   1.990       .  S
O1288      C1300   1.268       .  A
O1289      C1301   1.264       .  A
O1290      C1302   1.265       .  A
O1291      C1300   1.267       .  A
O1292      C1302   1.265       .  A
O1293      C1301   1.268       .  A
O1294      C1303   1.269       .  A
O1295      C1304   1.265       .  A
O1296      C1303   1.263       .  A
O1297      C1304   1.270       .  A
O1298      C1305   1.271       .  A
O1299      C1305   1.268       .  A
C1300      C1498   1.405       .  S
C1301      C1502   1.407       .  S
C1302      C1600   1.405       .  S
C1303      C1634   1.402       .  S
C1304      C1663   1.412       .  S
C1305      C1654   1.415       .  S
C1306      C1308   1.531       .  S
C1306      C1310   1.532       .  S
C1306      C1309   1.549       .  S
C1306      C1588   1.532       .  S
C1307      C1311   1.534       .  S
C1307      C1313   1.533       .  S
C1307      C1312   1.553       .  S
C1307      C1652   1.537       .  S
C1308      C1316   1.370       .  A
C1308      C1311   1.407       .  A
C1309      C1320   1.381       .  A
C1309      C1312   1.412       .  A
C1310      C1324   1.370       .  A
C1310      C1313   1.408       .  A
C1311      C1314   1.369       .  A
C1312      C1318   1.384       .  A
C1313      C1321   1.369       .  A
C1314      N1315   1.354       .  A
C1314      H1327   1.083       .  S
N1315      C1316   1.354       .  A
N1315      C1578   1.390       .  S
C1316      H1317   1.083       .  S
C1318      N1319   1.363       .  A
C1318      H1328   1.082       .  S
N1319      C1347   1.444       .  S
N1319      C1320   1.362       .  A
C1320      H1326   1.082       .  S
C1321      N1322   1.354       .  A
C1321      H1323   1.083       .  S
N1322      C1324   1.353       .  A
N1322      C1596   1.390       .  S
C1324      H1325   1.083       .  S
Zn1329     O1333   2.002       .  S
Zn1329     O1334   2.071       .  S
Zn1329     O1338   2.095       .  S
Zn1329     O1345   2.050       .  S
Zn1330     O1333   2.000       .  S
Zn1330     O1335   2.062       .  S
Zn1330     O1337   2.090       .  S
Zn1330     O1341   2.089       .  S
Zn1331     O1333   2.000       .  S
Zn1331     O1336   2.086       .  S
Zn1331     O1339   2.043       .  S
Zn1331     O1342   2.078       .  S
Zn1332     O1333   1.996       .  S
Zn1332     O1340   2.072       .  S
Zn1332     O1343   2.080       .  S
Zn1332     O1344   2.060       .  S
O1334      C1346   1.280       .  A
O1335      C1347   1.279       .  A
O1336      C1348   1.282       .  A
O1337      C1346   1.283       .  A
O1338      C1348   1.283       .  A
O1339      C1347   1.277       .  A
O1340      C1349   1.281       .  A
O1341      C1350   1.282       .  A
O1342      C1349   1.280       .  A
O1343      C1350   1.280       .  A
O1344      C1351   1.280       .  A
O1345      C1351   1.277       .  A
C1346      N1411   1.453       .  S
C1348      N1434   1.458       .  S
C1349      N1457   1.451       .  S
C1350      N1388   1.455       .  S
C1351      N1365   1.445       .  S
C1352      C1354   1.526       .  S
C1352      C1356   1.519       .  S
C1352      C1355   1.548       .  S
C1352      C1568   1.544       .  S
C1353      C1357   1.539       .  S
C1353      C1359   1.537       .  S
C1353      C1358   1.562       .  S
C1353      C1550   1.556       .  S
C1354      C1362   1.362       .  A
C1354      C1357   1.413       .  A
C1355      C1366   1.379       .  A
C1355      C1358   1.417       .  A
C1356      C1370   1.359       .  A
C1356      C1359   1.410       .  A
C1357      C1360   1.371       .  A
C1358      C1364   1.386       .  A
C1359      C1367   1.370       .  A
C1360      N1361   1.356       .  A
C1360      H1373   1.083       .  S
N1361      C1362   1.349       .  A
N1361      C1542   1.386       .  S
C1362      H1363   1.083       .  S
C1364      N1365   1.366       .  A
C1364      H1374   1.082       .  S
N1365      C1366   1.360       .  A
C1366      H1372   1.082       .  S
C1367      N1368   1.355       .  A
C1367      H1369   1.083       .  S
N1368      C1370   1.348       .  A
N1368      C1560   1.381       .  S
C1370      H1371   1.083       .  S
C1375      C1377   1.537       .  S
C1375      C1379   1.530       .  S
C1375      C1378   1.557       .  S
C1375      C1650   1.519       .  S
C1376      C1380   1.533       .  S
C1376      C1382   1.544       .  S
C1376      C1381   1.562       .  S
C1376      C1557   1.525       .  S
C1377      C1385   1.380       .  A
C1377      C1380   1.398       .  A
C1378      C1389   1.388       .  A
C1378      C1381   1.411       .  A
C1379      C1393   1.378       .  A
C1379      C1382   1.415       .  A
C1380      C1383   1.379       .  A
C1381      C1387   1.391       .  A
C1382      C1390   1.384       .  A
C1383      N1384   1.354       .  A
C1383      H1396   1.083       .  S
N1384      C1385   1.358       .  A
N1384      C1484   1.406       .  S
C1385      H1386   1.083       .  S
C1387      N1388   1.368       .  A
C1387      H1397   1.082       .  S
N1388      C1389   1.365       .  A
C1389      H1395   1.082       .  S
C1390      N1391   1.354       .  A
C1390      H1392   1.083       .  S
N1391      C1393   1.345       .  A
N1391      C1492   1.401       .  S
C1393      H1394   1.083       .  S
C1398      C1400   1.530       .  S
C1398      C1402   1.532       .  S
C1398      C1401   1.552       .  S
C1398      C1594   1.505       .  S
C1399      C1403   1.536       .  S
C1399      C1405   1.532       .  S
C1399      C1404   1.558       .  S
C1399      C1548   1.510       .  S
C1400      C1408   1.374       .  A
C1400      C1403   1.399       .  A
C1401      C1412   1.387       .  A
C1401      C1404   1.408       .  A
C1402      C1416   1.374       .  A
C1402      C1405   1.399       .  A
C1403      C1406   1.375       .  A
C1404      C1410   1.388       .  A
C1405      C1413   1.376       .  A
C1406      N1407   1.356       .  A
C1406      H1419   1.083       .  S
N1407      C1408   1.355       .  A
N1407      C1494   1.398       .  S
C1408      H1409   1.083       .  S
C1410      N1411   1.367       .  A
C1410      H1420   1.082       .  S
N1411      C1412   1.364       .  A
C1412      H1418   1.082       .  S
C1413      N1414   1.355       .  A
C1413      H1415   1.083       .  S
N1414      C1416   1.354       .  A
N1414      C1477   1.398       .  S
C1416      H1417   1.083       .  S
C1421      C1423   1.531       .  S
C1421      C1425   1.532       .  S
C1421      C1424   1.556       .  S
C1421      C1586   1.520       .  S
C1422      C1426   1.545       .  S
C1422      C1428   1.538       .  S
C1422      C1427   1.563       .  S
C1422      C1540   1.528       .  S
C1423      C1431   1.377       .  A
C1423      C1426   1.409       .  A
C1424      C1435   1.387       .  A
C1424      C1427   1.410       .  A
C1425      C1439   1.378       .  A
C1425      C1428   1.408       .  A
C1426      C1429   1.386       .  A
C1427      C1433   1.393       .  A
C1428      C1436   1.381       .  A
C1429      N1430   1.358       .  A
C1429      H1442   1.083       .  S
N1430      C1431   1.349       .  A
N1430      C1475   1.405       .  S
C1431      H1432   1.083       .  S
C1433      N1434   1.369       .  A
C1433      H1443   1.082       .  S
N1434      C1435   1.365       .  A
C1435      H1441   1.082       .  S
C1436      N1437   1.350       .  A
C1436      H1438   1.083       .  S
N1437      C1439   1.351       .  A
N1437      C1469   1.400       .  S
C1439      H1440   1.083       .  S
C1444      C1446   1.530       .  S
C1444      C1448   1.536       .  S
C1444      C1447   1.564       .  S
C1444      C1576   1.516       .  S
C1445      C1449   1.530       .  S
C1445      C1451   1.526       .  S
C1445      C1450   1.546       .  S
C1445      C1566   1.506       .  S
C1446      C1454   1.372       .  A
C1446      C1449   1.399       .  A
C1447      C1458   1.393       .  A
C1447      C1450   1.410       .  A
C1448      C1462   1.375       .  A
C1448      C1451   1.400       .  A
C1449      C1452   1.372       .  A
C1450      C1456   1.381       .  A
C1451      C1459   1.372       .  A
C1452      N1453   1.354       .  A
C1452      H1465   1.083       .  S
N1453      C1454   1.353       .  A
N1453      C1468   1.394       .  S
C1454      H1455   1.083       .  S
C1456      N1457   1.361       .  A
C1456      H1466   1.082       .  S
N1457      C1458   1.369       .  A
C1458      H1464   1.082       .  S
C1459      N1460   1.353       .  A
C1459      H1461   1.083       .  S
N1460      C1462   1.355       .  A
N1460      C1485   1.395       .  S
C1462      H1463   1.083       .  S
C1467      C1468   1.199       .  T
C1469      C1470   1.205       .  T
C1471      C1472   1.186       .  T
C1473      C1474   1.192       .  T
C1475      C1476   1.209       .  T
C1477      C1478   1.203       .  T
C1479      C1480   1.188       .  T
C1481      C1482   1.183       .  T
C1483      C1484   1.209       .  T
C1485      C1486   1.200       .  T
C1487      C1488   1.187       .  T
C1489      C1490   1.191       .  T
C1491      C1492   1.205       .  T
C1493      C1494   1.202       .  T
C1495      C1496   1.185       .  T
C1497      C1498   1.189       .  T
C1499      C1500   1.196       .  T
C1501      C1502   1.189       .  T
C1503      C1504   1.206       .  T
C1505      C1506   1.203       .  T
C1507      C1508   1.199       .  T
C1509      C1510   1.193       .  T
C1511      C1512   1.191       .  T
C1513      C1514   1.200       .  T
C1515      C1516   1.249       .  T
C1517      C1518   1.189       .  T
C1519      C1520   1.193       .  T
C1521      C1522   1.253       .  T
C1523      C1524   1.198       .  T
C1525      C1526   1.202       .  T
C1527      C1528   1.202       .  T
C1529      C1530   1.191       .  T
C1531      C1532   1.195       .  T
C1533      C1534   1.202       .  T
C1535      C1536   1.243   1_565  T
C1537      C1538   1.244       .  T
C1539      C1540   1.241       .  T
C1541      C1542   1.192       .  T
C1543      C1544   1.185       .  T
C1545      C1546   1.191       .  T
C1547      C1548   1.230       .  T
C1549      C1550   1.256       .  T
C1551      C1552   1.194       .  T
C1553      C1554   1.192       .  T
C1555      C1556   1.247       .  T
C1557      C1558   1.239       .  T
C1559      C1560   1.188       .  T
C1561      C1562   1.190       .  T
C1563      C1564   1.188       .  T
C1565      C1566   1.227       .  T
C1567      C1568   1.248       .  T
C1569      C1570   1.188       .  T
C1571      C1572   1.191       .  T
C1573      C1574   1.250       .  T
C1575      C1576   1.234       .  T
C1577      C1578   1.196       .  T
C1579      C1580   1.192       .  T
C1581      C1582   1.190       .  T
C1583      C1584   1.204       .  T
C1585      C1586   1.235       .  T
C1587      C1588   1.242       .  T
C1589      C1590   1.194       .  T
C1591      C1592   1.192       .  T
C1593      C1594   1.227       .  T
C1595      C1596   1.196       .  T
C1597      C1598   1.191       .  T
C1599      C1600   1.188       .  T
C1601      C1602   1.206       .  T
C1603      C1604   1.233       .  T
C1605      C1606   1.232       .  T
C1607      C1608   1.187       .  T
C1609      C1610   1.192       .  T
C1611      C1612   1.207       .  T
C1613      C1614   1.229       .  T
C1615      C1616   1.229       .  T
C1617      C1618   1.248       .  T
C1619      C1620   1.190       .  T
C1621      C1622   1.187       .  T
C1623      C1624   1.252       .  T
C1625      C1626   1.235       .  T
C1627      C1628   1.229       .  T
C1629      C1630   1.207       .  T
C1631      C1632   1.190       .  T
C1633      C1634   1.188       .  T
C1635      C1636   1.206       .  T
C1637      C1638   1.193       .  T
C1639      C1640   1.190       .  T
C1641      C1642   1.205       .  T
C1643      C1644   1.232       .  T
C1645      C1646   1.248       .  T
C1647      C1648   1.249       .  T
C1649      C1650   1.235       .  T
C1651      C1652   1.245       .  T
C1653      C1654   1.194       .  T
C1655      C1656   1.198       .  T
C1657      C1658   1.236       .  T
C1659      C1660   1.248       .  T
C1661      C1662   1.249       .  T
C1663      C1664   1.193       .  T
C1665      C1666   1.193       .  T
C1667      C1668   1.212       .  T
C1669      C1670   1.197       .  T
C1671      C1672   1.194       .  T
C1673      C1674   1.230       .  T
C1675      C1676   1.190       .  T
C1677      C1678   1.194       .  T
C1679      C1680   1.233       .  T
C1681      C1682   1.207       .  T
C1683      C1684   1.207       .  T
C1685      C1686   1.205       .  T
C1687      C1688   1.191       .  T
C1689      C1690   1.190       .  T
C1691      C1692   1.208       .  T
C1693      C1694   1.193       .  T
C1695      C1696   1.193       .  T
C1697      C1698   1.233       .  T
C1699      C1700   1.188       .  T
C1701      C1702   1.186       .  T
C1703      C1704   1.204       .  T
C1705      C1706   1.224       .  T
C1707      C1708   1.194       .  T
C1709      C1710   1.196       .  T
C1711      C1712   1.234       .  T
C1713      C1714   1.232       .  T
C1715      C1716   1.259       .  T
C1717      C1718   1.260       .  T
C1719      C1720   1.193       .  T
C1721      C1722   1.194       .  T
C1723      C1724   1.194       .  T
C1725      C1726   1.195       .  T
C1727      C1728   1.231       .  T
C1729      C1730   1.232       .  T
C1731      C1732   1.258       .  T
C1733      C1734   1.261       .  T
C1735      C1736   1.195       .  T
C1737      C1738   1.194       .  T
C1739      C1740   1.250       .  T
C1741      C1742   1.198       .  T
C1743      C1744   1.249       .  T
C1745      C1746   1.201       .  T
C1747      C1748   1.255       .  T
C1749      C1750   1.195       .  T
C1751      C1752   1.254       .  T
C1753      C1754   1.195       .  T
