geometry optimzed in LAMMPS
_audit_creation_date              2020-12-01 
_audit_creation_method            'lammps2cif' 
_symmetry_space_group_name_H-M    'P1' 
_symmetry_Int_Tables_number       1 
_symmetry_cell_setting            triclinic 
loop_ 
_symmetry_equiv_pos_as_xyz 
  x,y,z 
_cell_length_a                    30.34162493 
_cell_length_b                    45.38874420955037 
_cell_length_c                    30.396790670714246 
_cell_angle_alpha                 90.73790981855892 
_cell_angle_beta                  109.69239719114954 
_cell_angle_gamma                 89.90491718234402 
loop_ 
_atom_site_label 
_atom_site_type_symbol 
_atom_site_fract_x 
_atom_site_fract_y 
_atom_site_fract_z 
_atom_site_charge 
Fe1        Fe  0.63439034  0.82718540  0.25738327     1.65800
Fe2        Fe  0.70810899  0.83812636  0.19617974     1.73200
Fe3        Fe  0.70850074  0.77334619  0.24802864     1.54400
O4          O  0.72944060  0.78351162  0.31753605    -0.81300
O5          O  0.71609892  0.80316485  0.15509509    -0.79600
O6          O  0.66695253  0.80710374  0.32332074    -0.83800
O7          O  0.59347651  0.79031112  0.23379788    -0.78600
O8          O  0.77488248  0.78489203  0.24807093    -0.80400
O9          O  0.64247621  0.84373337  0.14943201    -0.83100
C10         C  0.60431688  0.76351424  0.24194029     0.97600
C11         C  0.70407687  0.79161337  0.34110979     1.05100
O12         O  0.68341584  0.81305299  0.23394937    -1.12100
O13         O  0.70206140  0.87704214  0.23039964    -0.74600
O14         O  0.66866933  0.86658055  0.28333543    -0.78000
O15         O  0.64620362  0.75448997  0.25129936    -0.78700
C16         C  0.68779426  0.88461639  0.26365103     0.96500
O17         O  0.59623332  0.84697326  0.19289439    -0.76700
O18         O  0.77653822  0.83335931  0.23987583    -0.81900
C19         C  0.70373866  0.77624740  0.14905631     0.99100
C20         C  0.79707638  0.80859406  0.24784210     1.05100
O21         O  0.69026539  0.76206351  0.17811832    -0.77500
C22         C  0.60317952  0.84930463  0.15374631     1.03400
Fe23       Fe  0.31888525  0.83095389  0.73306403     1.65800
Fe24       Fe  0.25775278  0.84285236  0.80524150     1.73200
Fe25       Fe  0.26227770  0.77460406  0.76201656     1.54400
O26         O  0.25671328  0.77284669  0.69211713    -0.81300
O27         O  0.28282495  0.81664423  0.86235132    -0.79600
O28         O  0.27073371  0.81707726  0.66899086    -0.83800
O29         O  0.35449816  0.79132773  0.73583184    -0.78600
O30         O  0.19142415  0.78429189  0.74248803    -0.80400
O31         O  0.32162017  0.86504457  0.82936452    -0.83100
C32         C  0.35945080  0.76783045  0.75932980     0.97600
C33         C  0.25613439  0.79048392  0.65964797     1.05100
O34         O  0.27911488  0.81604073  0.76654363    -1.12100
O35         O  0.23083870  0.87149459  0.75090425    -0.74600
O36         O  0.29110630  0.87401594  0.72599512    -0.78000
O37         O  0.33179798  0.76115960  0.78116894    -0.78700
C38         C  0.25587436  0.88597819  0.73285894     0.96500
O39         O  0.36833708  0.84293316  0.79671043    -0.76700
O40         O  0.19214277  0.82298690  0.78828173    -0.81900
C41         C  0.27377969  0.78972885  0.86559046     0.99100
C42         C  0.17084851  0.80138349  0.76287658     1.05100
O43         O  0.26457615  0.77176087  0.83116984    -0.77500
C44         C  0.36240546  0.85740380  0.83049002     1.03400
Fe45       Fe  0.82747566  0.66261870  0.74041402     1.65800
Fe46       Fe  0.74968683  0.64861516  0.79478366     1.73200
Fe47       Fe  0.76005291  0.71820538  0.75784481     1.54400
O48         O  0.82838101  0.73426963  0.78301574    -0.81300
O49         O  0.68343545  0.66711050  0.76873702    -0.79600
O50         O  0.86493753  0.70169348  0.75254158    -0.83800
O51         O  0.79061404  0.67668017  0.67335855    -0.78600
O52         O  0.75682870  0.72124984  0.82534069    -0.80400
O53         O  0.73329987  0.61863299  0.73974856    -0.83100
C54         C  0.77087548  0.70160534  0.66130919     0.97600
C55         C  0.86320837  0.72646859  0.77149322     1.05100
O56         O  0.77844148  0.67666030  0.76386390    -1.12100
O57         O  0.81264824  0.62713764  0.82808078    -0.74600
O58         O  0.86675627  0.65003115  0.80716565    -0.78000
O59         O  0.76055378  0.71911199  0.68954993    -0.78700
C60         C  0.85515154  0.63417939  0.83570993     0.96500
O61         O  0.79982616  0.62000612  0.72480754    -0.76700
O62         O  0.76290303  0.67531897  0.85272760    -0.81900
C63         C  0.66544266  0.69014830  0.74648661     0.99100
C64         C  0.75878422  0.70290156  0.85735205     1.05100
O65         O  0.68942703  0.70810466  0.73204555    -0.77500
C66         C  0.76318300  0.60636650  0.72473736     1.03400
Fe67       Fe  0.13440820  0.66021950  0.25271112     1.65800
Fe68       Fe  0.21285764  0.65332472  0.19441913     1.73200
Fe69       Fe  0.20206631  0.71922184  0.24494312     1.54400
O70         O  0.13462864  0.73520112  0.23340846    -0.81300
O71         O  0.28002521  0.66400097  0.23647364    -0.79600
O72         O  0.09217032  0.69668466  0.23905472    -0.83800
O73         O  0.16668705  0.67566626  0.32072894    -0.78600
O74         O  0.19491695  0.72902370  0.17648143    -0.80400
O75         O  0.21708472  0.61564445  0.23215492    -0.83100
C76         C  0.19353943  0.69752199  0.33834391     0.97600
C77         C  0.09644522  0.72397675  0.23383627     1.05100
O78         O  0.18319627  0.67757723  0.23103483    -1.12100
O79         O  0.14830945  0.64120608  0.14761767    -0.74600
O80         O  0.09698280  0.64504595  0.18591441    -0.78000
O81         O  0.21104614  0.71403935  0.31490543    -0.78700
C82         C  0.10705724  0.63971147  0.14921295     0.96500
O83         O  0.16694324  0.61982858  0.27035587    -0.76700
O84         O  0.21457058  0.68670338  0.15042537    -0.81900
C85         C  0.29798242  0.68873165  0.25300496     0.99100
C86         C  0.20611112  0.71399956  0.14633805     1.05100
O87         O  0.27258539  0.71007632  0.25773426    -0.77500
C88         C  0.19645255  0.60502920  0.25817846     1.03400
Fe89       Fe  0.63067753  0.15859588  0.27694129     1.65800
Fe90       Fe  0.70016571  0.15458851  0.21042030     1.73200
Fe91       Fe  0.69054431  0.21896713  0.26239526     1.59200
O92         O  0.62539094  0.23231475  0.26497153    -0.81300
O93         O  0.76692966  0.16370671  0.25381167    -0.79600
O94         O  0.58224491  0.19178100  0.25775758    -0.83800
O95         O  0.66237952  0.17977864  0.34269037    -0.78600
O96         O  0.66897413  0.22854844  0.19225974    -0.80400
O97         O  0.70122077  0.11461061  0.24308740    -0.83100
C98         C  0.69351169  0.19997410  0.35850017     0.97600
C99         C  0.58703822  0.21946885  0.26111165     1.05100
O100        O  0.67343001  0.17739140  0.25013794    -1.12100
O101        O  0.63524616  0.14517184  0.16504969    -0.74600
O102        O  0.59336543  0.13762234  0.21210585    -0.78000
O103        O  0.71361067  0.21252620  0.33321169    -0.78700
C104        C  0.59796886  0.13719485  0.17160605     0.96500
O105        O  0.67362764  0.12240371  0.30062876    -0.76700
O106        O  0.70226585  0.19029360  0.16935089    -0.81900
C107        C  0.78340446  0.18969678  0.25975660     0.99100
C108        C  0.68500318  0.21603775  0.16327907     1.05100
O109        O  0.75816133  0.21193934  0.26109888    -0.77500
C110        C  0.69245873  0.10553294  0.27855007     1.03400
Fe111      Fe  0.31349981  0.16427316  0.75486031     1.65800
Fe112      Fe  0.24256638  0.15273727  0.81959857     1.73200
Fe113      Fe  0.24950545  0.22067028  0.77808052     1.54400
O114        O  0.31348348  0.23800462  0.77911299    -0.81300
O115        O  0.17411663  0.16260166  0.78032359    -0.79600
O116        O  0.35759612  0.19997533  0.77390702    -0.83800
O117        O  0.27739131  0.18479348  0.69137727    -0.78600
O118        O  0.26934020  0.22678723  0.84950343    -0.80400
O119        O  0.23997015  0.11538470  0.77904144    -0.83100
C120        C  0.24637640  0.20507351  0.67872913     0.97600
C121        C  0.35146961  0.22732189  0.77728108     1.05100
O122        O  0.26856103  0.17911588  0.78368716    -1.12100
O123        O  0.30899003  0.14211929  0.86226969    -0.74600
O124        O  0.35408786  0.14435654  0.81732011    -0.78000
O125        O  0.22838896  0.21734330  0.70654137    -0.78700
C126        C  0.34828777  0.13917580  0.85628448     0.96500
O127        O  0.27809412  0.12525020  0.73013936    -0.76700
O128        O  0.24111808  0.18507875  0.86725167    -0.81900
C129        C  0.15693683  0.18842911  0.77516860     0.99100
C130        C  0.25553214  0.21135377  0.87693013     1.05100
O131        O  0.18185081  0.21108967  0.77608073    -0.77500
C132        C  0.25519462  0.10781730  0.74658128     1.03400
Fe133      Fe  0.81768238  0.33146380  0.76199393     1.65800
Fe134      Fe  0.74245900  0.34471136  0.82058794     1.73200
Fe135      Fe  0.75235540  0.27514945  0.78101702     1.54400
O136        O  0.75219772  0.27314745  0.71240822    -0.81300
O137        O  0.75501943  0.31805234  0.87728680    -0.79600
O138        O  0.78002305  0.31563021  0.69523603    -0.83800
O139        O  0.85594416  0.29285616  0.77422624    -0.78600
O140        O  0.68170337  0.28477849  0.75616422    -0.80400
O141        O  0.80608266  0.36520939  0.85564855    -0.83100
C142        C  0.85509098  0.26818475  0.79297396     0.97600
C143        C  0.76125689  0.29023299  0.68354692     1.05100
O144        O  0.77041387  0.31697424  0.78759917    -1.12100
O145        O  0.72558282  0.37494113  0.76730613    -0.74600
O146        O  0.78839573  0.37349357  0.74594507    -0.78000
O147        O  0.82105417  0.26008091  0.80539424    -0.78700
C148        C  0.75227883  0.38679620  0.74827214     0.96500
O149        O  0.85877729  0.34632527  0.82759894    -0.76700
O150        O  0.67601881  0.32662808  0.79299855    -0.81900
C151        C  0.74954714  0.29061145  0.88056674     0.99100
C152        C  0.65797664  0.30339454  0.77035235     1.05100
O153        O  0.74862964  0.27221115  0.84826339    -0.77500
C154        C  0.84848126  0.36042490  0.85924110     1.03400
Fe155      Fe  0.11988316  0.33000307  0.27627166     1.65800
Fe156      Fe  0.19541322  0.34099309  0.21792636     1.73200
Fe157      Fe  0.18842649  0.27387465  0.26286409     1.54400
O158        O  0.18446717  0.27377787  0.32963095    -0.81300
O159        O  0.18071372  0.31219240  0.16263228    -0.79600
O160        O  0.15694705  0.31731556  0.34395001    -0.83800
O161        O  0.08340210  0.29073591  0.26485235    -0.78600
O162        O  0.25776625  0.28599130  0.29123105    -0.80400
O163        O  0.13191032  0.36160846  0.18348565    -0.83100
C164        C  0.08560799  0.26597332  0.24592774     0.97600
C165        C  0.17498546  0.29217588  0.35704084     1.05100
O166        O  0.16819475  0.31492787  0.25263522    -1.12100
O167        O  0.21234554  0.37277163  0.26991331    -0.74600
O168        O  0.14814814  0.37223967  0.28954568    -0.78000
O169        O  0.12084631  0.25779582  0.23542349    -0.78700
C170        C  0.18364974  0.38551877  0.28601740     0.96500
O171        O  0.07887630  0.34260387  0.21022602    -0.76700
O172        O  0.26212372  0.32252242  0.24490959    -0.81900
C173        C  0.19092732  0.28513597  0.16279628     0.99100
C174        C  0.28083088  0.30137336  0.27192025     1.05100
O175        O  0.19620608  0.26865632  0.19770730    -0.77500
C176        C  0.08938047  0.35736727  0.17993969     1.03400
C177        C  0.96284517  0.35845619  0.96302344    -0.05100
C178        C  0.95139018  0.37551915  0.99677706     0.09100
C179        C  0.90958685  0.39193057  0.98295135    -0.02400
C180        C  0.87691435  0.38864144  0.93725618    -0.00700
C181        C  0.88672822  0.36977553  0.90383457    -0.04300
C182        C  0.93214943  0.35709552  0.91630562     0.02700
C183        C  0.98380233  0.37616737  0.04670754     0.09500
C184        C  0.90003287  0.41205645  0.01612326     0.35400
C185        C  0.94853442  0.34319297  0.88144857     0.38900
C186        C  0.02836899  0.38937450  0.05845005    -0.04700
C187        C  0.06180373  0.38575699  0.10342541     0.02500
C188        C  0.05101738  0.36857014  0.13736462    -0.04300
C189        C  0.00353709  0.35998921  0.12766617    -0.00500
C190        C  0.97074565  0.36272509  0.08212135    -0.03100
C191        C  0.04009827  0.40623458  0.02363874     0.36200
C192        C  0.98744171  0.34895284  0.16425096     0.39800
C193        C  0.10669608  0.40052504  0.11446848     0.38900
C194        C  0.92385157  0.35083088  0.07141258     0.35900
C195        C  0.00576604  0.34137291  0.97675660     0.36500
C196        C  0.83366232  0.40526190  0.92514597     0.39800
N197        N  0.14232838  0.41250798  0.12317891    -0.38300
N198        N  0.04940478  0.41955779  0.99575131    -0.39900
N199        N  0.97426418  0.34041619  0.19335203    -0.37600
N200        N  0.88640648  0.34148315  0.06306465    -0.40000
N201        N  0.89248041  0.42807946  0.04262866    -0.39800
N202        N  0.79922906  0.41856176  0.91595833    -0.37400
N203        N  0.96218216  0.33254102  0.85371338    -0.38500
N204        N  0.03988230  0.32767739  0.98781580    -0.40100
C205        C  0.24057615  0.26635634  0.47994885    -0.05100
C206        C  0.20355676  0.25530170  0.49335622     0.09100
C207        C  0.15688922  0.25876568  0.46346386    -0.02400
C208        C  0.14731391  0.27257802  0.41989606    -0.00700
C209        C  0.18443223  0.28276456  0.40583159    -0.04300
C210        C  0.23102100  0.27997101  0.43623226     0.02700
C211        C  0.21351431  0.24185163  0.54045743     0.09500
C212        C  0.11882137  0.24791555  0.47761385     0.35400
C213        C  0.26902413  0.29137582  0.42248661     0.38900
C214        C  0.21838689  0.26026933  0.57938230    -0.04700
C215        C  0.22899549  0.24818844  0.62418916     0.02500
C216        C  0.23300209  0.21715396  0.63042849    -0.04300
C217        C  0.22726811  0.19867186  0.59100490    -0.00500
C218        C  0.21810889  0.21105003  0.54629073    -0.03100
C219        C  0.21281622  0.29189396  0.57319734     0.36200
C220        C  0.22988232  0.16693939  0.59614280     0.39800
C221        C  0.23847134  0.26817264  0.66404327     0.38900
C222        C  0.21376386  0.19218240  0.50619852     0.35900
C223        C  0.28849413  0.26359477  0.51116833     0.36500
C224        C  0.09930239  0.27563464  0.38903308     0.39800
N225        N  0.24618924  0.28418156  0.69570599    -0.38300
N226        N  0.20819424  0.31707248  0.56809485    -0.39900
N227        N  0.23183903  0.14160855  0.60026707    -0.37600
N228        N  0.21044911  0.17718331  0.47415746    -0.40000
N229        N  0.08861967  0.23917423  0.48909649    -0.39800
N230        N  0.06096064  0.27806946  0.36449287    -0.37400
N231        N  0.29913482  0.30067647  0.41138593    -0.38500
N232        N  0.32671225  0.26141624  0.53615573    -0.40100
C233        C  0.21729953  0.25970748  0.95997507    -0.05100
C234        C  0.23292242  0.24294616  0.00109156     0.09100
C235        C  0.25978117  0.21739317  0.00270095    -0.02400
C236        C  0.26961643  0.20797041  0.96270979    -0.00700
C237        C  0.25298313  0.22426350  0.92096472    -0.04300
C238        C  0.22734334  0.25044886  0.91996082     0.02700
C239        C  0.22239557  0.25287566  0.04336794     0.09500
C240        C  0.27678556  0.20064456  0.04546044     0.35400
C241        C  0.20861778  0.26688111  0.87702798     0.38900
C242        C  0.18514234  0.24013414  0.05460573    -0.04700
C243        C  0.17486672  0.25025478  0.09416833     0.02500
C244        C  0.20152506  0.27334468  0.12203056    -0.04300
C245        C  0.23937922  0.28561713  0.11110911    -0.00500
C246        C  0.24978664  0.27533313  0.07197419    -0.03100
C247        C  0.15721826  0.21688804  0.02508977     0.36200
C248        C  0.26847116  0.30854718  0.14049548     0.39800
C249        C  0.13625219  0.23754619  0.10548760     0.38900
C250        C  0.28879741  0.28785027  0.06099408     0.35900
C251        C  0.18983809  0.28610300  0.95866447     0.36500
C252        C  0.29625445  0.18117940  0.96434451     0.39800
N253        N  0.10543983  0.22744077  0.11458022    -0.38300
N254        N  0.13507150  0.19831507  0.00145259    -0.39900
N255        N  0.29212945  0.32687981  0.16326007    -0.37600
N256        N  0.31981749  0.29783808  0.05213841    -0.40000
N257        N  0.29022104  0.18729277  0.07957548    -0.39800
N258        N  0.31711878  0.15967401  0.96550011    -0.37400
N259        N  0.19352307  0.27998041  0.84280117    -0.38500
N260        N  0.16797040  0.30713655  0.95782421    -0.40100
C261        C  0.43638351  0.26570162  0.72933830    -0.05100
C262        C  0.47033943  0.27640569  0.77050570     0.09100
C263        C  0.46187935  0.27475957  0.81339878    -0.02400
C264        C  0.42124460  0.26038751  0.81553823    -0.00700
C265        C  0.38944881  0.24723027  0.77490196    -0.04300
C266        C  0.39668627  0.25059950  0.73159783     0.02700
C267        C  0.51809883  0.28399310  0.76954580     0.09500
C268        C  0.49601192  0.28684820  0.85547402     0.35400
C269        C  0.36487323  0.23707424  0.68939545     0.38900
C270        C  0.52909994  0.31257494  0.75868596    -0.04700
C271        C  0.57385329  0.31867050  0.75593383     0.02500
C272        C  0.60827539  0.29628588  0.76487740    -0.04300
C273        C  0.59663933  0.26751369  0.77526180    -0.00500
C274        C  0.55166788  0.26141492  0.77680706    -0.03100
C275        C  0.49435272  0.33567690  0.75050607     0.36200
C276        C  0.63148249  0.24427925  0.78712757     0.39800
C277        C  0.58422135  0.34789380  0.74324461     0.38900
C278        C  0.53969916  0.23168273  0.78600849     0.35900
C279        C  0.44363801  0.26900840  0.68483237     0.36500
C280        C  0.41354458  0.25761804  0.85983595     0.39800
N281        N  0.59263413  0.37115640  0.73301124    -0.38300
N282        N  0.46666471  0.35416438  0.74404352    -0.39900
N283        N  0.65909309  0.22566972  0.79678242    -0.37600
N284        N  0.52981351  0.20802868  0.79308084    -0.40000
N285        N  0.52332683  0.29660103  0.88894595    -0.39800
N286        N  0.40736766  0.25536225  0.89519495    -0.37400
N287        N  0.34068977  0.22621837  0.65515857    -0.38500
N288        N  0.44940198  0.27184733  0.64937861    -0.40100
C289        C  0.04569944  0.18784719  0.80735871    -0.05100
C290        C  0.02080638  0.21163177  0.78097951     0.09100
C291        C  0.03804660  0.22526585  0.74848864    -0.02400
C292        C  0.08029864  0.21559415  0.74318482    -0.00700
C293        C  0.10724954  0.19329345  0.77222871    -0.04300
C294        C  0.08922591  0.17917917  0.80396894     0.02700
C295        C  0.97676635  0.22266246  0.78786646     0.09500
C296        C  0.01315033  0.25004595  0.72170647     0.35400
C297        C  0.11674853  0.15718867  0.83574118     0.38900
C298        C  0.97897534  0.23933143  0.82825508    -0.04700
C299        C  0.93771783  0.25132556  0.83298191     0.02500
C300        C  0.89449950  0.24784371  0.79660291    -0.04300
C301        C  0.89172246  0.22914453  0.75827659    -0.00500
C302        C  0.93269251  0.21666698  0.75382573    -0.03100
C303        C  0.02389509  0.24508063  0.86405970     0.36200
C304        C  0.84656879  0.22288767  0.72320413     0.39800
C305        C  0.93929567  0.26646307  0.87573870     0.38900
C306        C  0.92970974  0.19831424  0.71351698     0.35900
C307        C  0.02682841  0.17271227  0.83885446     0.36500
C308        C  0.09600051  0.22860840  0.70764322     0.39800
N309        N  0.94042450  0.27786476  0.91037859    -0.38300
N310        N  0.05980476  0.24966314  0.89252641    -0.39900
N311        N  0.81055355  0.21749440  0.69547990    -0.37600
N312        N  0.92740840  0.18377722  0.68125783    -0.40000
N313        N  0.99344029  0.26992004  0.70053116    -0.39800
N314        N  0.10845488  0.23879889  0.67912459    -0.37400
N315        N  0.13877896  0.13980776  0.86138086    -0.38500
N316        N  0.01158007  0.16068312  0.86387168    -0.40100
C317        C  0.77882365  0.25967066  0.57291528    -0.05100
C318        C  0.73292163  0.25082173  0.54601654     0.09100
C319        C  0.69589932  0.25660280  0.56324732    -0.02400
C320        C  0.70488913  0.27025592  0.60755913    -0.00700
C321        C  0.75088544  0.27892852  0.63470063    -0.04300
C322        C  0.78778333  0.27372442  0.61693998     0.02700
C323        C  0.72308203  0.23715131  0.49816841     0.09500
C324        C  0.64839142  0.24872791  0.53499917     0.35400
C325        C  0.83540783  0.28162401  0.64487948     0.38900
C326        C  0.72748785  0.20643616  0.49219466    -0.04700
C327        C  0.71764240  0.19390420  0.44681427     0.02500
C328        C  0.70413425  0.21210005  0.40710963    -0.04300
C329        C  0.70014486  0.24294398  0.41348097    -0.00500
C330        C  0.70932803  0.25524943  0.45857163    -0.03100
C331        C  0.74264517  0.18784136  0.53293056     0.36200
C332        C  0.68503588  0.26224796  0.37343996     0.39800
C333        C  0.72285849  0.16249118  0.44111486     0.38900
C334        C  0.70453642  0.28675571  0.46435016     0.35900
C335        C  0.81686956  0.25425935  0.55511690     0.36500
C336        C  0.66663167  0.27572103  0.62506916     0.39800
N337        N  0.72711204  0.13741395  0.43649827    -0.38300
N338        N  0.75498939  0.17310296  0.56559520    -0.39900
N339        N  0.67312750  0.27780719  0.34174664    -0.37600
N340        N  0.70065517  0.31186119  0.46901950    -0.40000
N341        N  0.61047821  0.24259020  0.51223555    -0.39800
N342        N  0.63617231  0.28010396  0.63912520    -0.37400
N343        N  0.87343802  0.28778896  0.66725050    -0.38500
N344        N  0.84713798  0.24989903  0.54078529    -0.40100
C345        C  0.67205666  0.22980331  0.03736129    -0.05100
C346        C  0.70468954  0.25280689  0.04245652     0.09100
C347        C  0.72538495  0.26667728  0.08644094    -0.02400
C348        C  0.71628736  0.25604104  0.12595771    -0.00700
C349        C  0.68601536  0.23172181  0.12133448    -0.04300
C350        C  0.66276537  0.21930647  0.07677007     0.02700
C351        C  0.71700445  0.26252033  0.00125251     0.09500
C352        C  0.75656002  0.29158209  0.09098041     0.35400
C353        C  0.62974511  0.19543700  0.07204800     0.38900
C354        C  0.68992452  0.28426243  0.97173778    -0.04700
C355        C  0.70074085  0.29319362  0.93238456     0.02500
C356        C  0.73910305  0.28050550  0.92230242    -0.04300
C357        C  0.76602109  0.25851272  0.95173128    -0.00500
C358        C  0.75509285  0.24963756  0.99129475    -0.03100
C359        C  0.65067024  0.29734618  0.98190698     0.36200
C360        C  0.80549215  0.24556794  0.94195075     0.39800
C361        C  0.67114275  0.31489923  0.90155736     0.38900
C362        C  0.78300686  0.22732035  0.02198348     0.35900
C363        C  0.64869011  0.21673846  0.99163563     0.36500
C364        C  0.74006188  0.26903224  0.17168316     0.39800
N365        N  0.64716562  0.33223901  0.87745120    -0.38300
N366        N  0.61941629  0.30774984  0.99010877    -0.39900
N367        N  0.83702194  0.23525957  0.93413290    -0.37600
N368        N  0.80518533  0.20955136  0.04665719    -0.40000
N369        N  0.78121498  0.31155114  0.09440223    -0.39800
N370        N  0.75907523  0.27936859  0.20817533    -0.37400
N371        N  0.60358122  0.17645227  0.06947089    -0.38500
N372        N  0.63012159  0.20651580  0.95497159    -0.40100
C373        C  0.00624054  0.21283979  0.27658210    -0.05100
C374        C  0.96270311  0.22061444  0.24359523     0.09100
C375        C  0.96119927  0.23892856  0.20587784    -0.02400
C376        C  0.00290554  0.25123733  0.20337677    -0.00700
C377        C  0.04582578  0.24575413  0.23899004    -0.04300
C378        C  0.04780740  0.22535089  0.27420880     0.02700
C379        C  0.91835063  0.21101387  0.25027459     0.09500
C380        C  0.91657978  0.24627207  0.17107889     0.35400
C381        C  0.09239838  0.21843657  0.30940548     0.38900
C382        C  0.90216531  0.22608371  0.28273923    -0.04700
C383        C  0.85956183  0.21784311  0.28821762     0.02500
C384        C  0.83204293  0.19492674  0.26024041    -0.04300
C385        C  0.84881927  0.17964299  0.22796828    -0.00500
C386        C  0.89218122  0.18739154  0.22372454    -0.03100
C387        C  0.92884826  0.25069628  0.30963214     0.36200
C388        C  0.82029335  0.15734677  0.19651167     0.39800
C389        C  0.84406425  0.23316665  0.32258055     0.38900
C390        C  0.90956807  0.17150595  0.19121348     0.35900
C391        C  0.00790565  0.19312329  0.31426819     0.36500
C392        C  0.00186203  0.26973891  0.16451159     0.39800
N393        N  0.83166849  0.24543121  0.34991189    -0.38300
N394        N  0.94999748  0.27039935  0.33097839    -0.39900
N395        N  0.79753318  0.13970883  0.17112998    -0.37600
N396        N  0.92354138  0.15887571  0.16534066    -0.40000
N397        N  0.88095420  0.25214782  0.14338540    -0.39800
N398        N  0.00121074  0.28406034  0.13307715    -0.37400
N399        N  0.12795003  0.21286367  0.33745587    -0.38500
N400        N  0.00908402  0.17749583  0.34442149    -0.40100
C401        C  0.40817857  0.30403286  0.27480383    -0.05100
C402        C  0.41756078  0.27383097  0.27117437     0.09100
C403        C  0.38355305  0.25276900  0.27132809    -0.02400
C404        C  0.34002039  0.26174719  0.27410006    -0.00700
C405        C  0.32972067  0.29218647  0.27663966    -0.04300
C406        C  0.36446752  0.31322886  0.27736027     0.02700
C407        C  0.46391276  0.26366398  0.26901219     0.09500
C408        C  0.39324396  0.22164294  0.26777347     0.35400
C409        C  0.35557908  0.34439524  0.28096330     0.38900
C410        C  0.49804047  0.25308418  0.30975515    -0.04700
C411        C  0.53858347  0.23909924  0.30707127     0.02500
C412        C  0.54665796  0.23694881  0.26394661    -0.04300
C413        C  0.51361511  0.24880522  0.22348170    -0.00500
C414        C  0.47194256  0.26171350  0.22586103    -0.03100
C415        C  0.49050211  0.25571515  0.35432831     0.36200
C416        C  0.52158117  0.24647473  0.17913865     0.39800
C417        C  0.57045120  0.22542010  0.34847373     0.38900
C418        C  0.43636467  0.27182640  0.18368958     0.35900
C419        C  0.44371150  0.32560854  0.27589657     0.36500
C420        C  0.30518997  0.23932263  0.27180115     0.39800
N421        N  0.59462614  0.21427658  0.38194436    -0.38300
N422        N  0.48446349  0.25788150  0.38984404    -0.39900
N423        N  0.52803048  0.24447405  0.14379857    -0.37600
N424        N  0.40778465  0.27978068  0.15004347    -0.40000
N425        N  0.40109689  0.19686273  0.26496938    -0.39800
N426        N  0.27759641  0.22134989  0.27001727    -0.37400
N427        N  0.34864838  0.36932073  0.28361230    -0.38500
N428        N  0.47219808  0.34274912  0.27678115    -0.40100
C429        C  0.41855498  0.10671098  0.97438138    -0.05100
C430        C  0.45968844  0.12389381  0.98681612     0.09100
C431        C  0.46726000  0.14260485  0.95327267    -0.02400
C432        C  0.43228832  0.14606269  0.90909455    -0.00700
C433        C  0.38918746  0.13074034  0.89795711    -0.04300
C434        C  0.38349906  0.11003248  0.93023351     0.02700
C435        C  0.49302982  0.12412010  0.03632486     0.09500
C436        C  0.51041859  0.15924697  0.96453882     0.35400
C437        C  0.34124085  0.09231661  0.91840080     0.38900
C438        C  0.53451099  0.10737309  0.04901947    -0.04700
C439        C  0.56722063  0.10960454  0.09484843     0.02500
C440        C  0.55848129  0.12839167  0.12867906    -0.04300
C441        C  0.51519664  0.14329205  0.11677704    -0.00500
C442        C  0.48305388  0.14154704  0.07066012    -0.03100
C443        C  0.54398058  0.08839415  0.01452722     0.36200
C444        C  0.50442978  0.16170163  0.15110740     0.39800
C445        C  0.61044396  0.09292132  0.10700101     0.38900
C446        C  0.44052947  0.15889090  0.05793165     0.35900
C447        C  0.41194999  0.08608818  0.00769166     0.36500
C448        C  0.44003365  0.16688907  0.87657889     0.39800
N449        N  0.64499021  0.07970038  0.11673057    -0.38300
N450        N  0.55152302  0.07323453  0.98700420    -0.39900
N451        N  0.49499519  0.17622736  0.17818606    -0.37600
N452        N  0.40685134  0.17296311  0.04800630    -0.40000
N453        N  0.54450704  0.17275623  0.97210192    -0.39800
N454        N  0.44691168  0.18351767  0.85106646    -0.37400
N455        N  0.30746650  0.07825505  0.90906426    -0.38500
N456        N  0.40689310  0.06963896  0.03438231    -0.40100
C457        C  0.21256710  0.52179397  0.25009294    -0.05100
C458        C  0.20606668  0.51221295  0.29136274     0.09100
C459        C  0.20150755  0.53310954  0.32422838    -0.02400
C460        C  0.20134052  0.56356693  0.31495514    -0.00700
C461        C  0.20472548  0.57336328  0.27206321    -0.04300
C462        C  0.21181999  0.55210243  0.24027032     0.02700
C463        C  0.19997538  0.47998812  0.29768898     0.09500
C464        C  0.19575344  0.52310891  0.36707537     0.35400
C465        C  0.21587759  0.56086780  0.19600210     0.38900
C466        C  0.23913705  0.46171951  0.31740385    -0.04700
C467        C  0.23356590  0.43079164  0.31705282     0.02500
C468        C  0.18883334  0.41787774  0.29597181    -0.04300
C469        C  0.14927870  0.43652859  0.27817216    -0.00500
C470        C  0.15495951  0.46738522  0.27942770    -0.03100
C471        C  0.28535812  0.47479335  0.33635218     0.36200
C472        C  0.10286847  0.42426475  0.25524335     0.39800
C473        C  0.27392293  0.41228383  0.33840858     0.38900
C474        C  0.11460415  0.48627370  0.25958260     0.35900
C475        C  0.21815938  0.50018178  0.21671076     0.36500
C476        C  0.19816361  0.58472062  0.34993088     0.39800
N477        N  0.30607476  0.39752295  0.35574272    -0.38300
N478        N  0.32222573  0.48531545  0.35124419    -0.39900
N479        N  0.06570727  0.41477705  0.23682575    -0.37600
N480        N  0.08252016  0.50136335  0.24371926    -0.40000
N481        N  0.19107250  0.51504156  0.40119397    -0.39800
N482        N  0.19577316  0.60160294  0.37789778    -0.37400
N483        N  0.21916193  0.56769877  0.16067391    -0.38500
N484        N  0.22257233  0.48290135  0.19018293    -0.40100
C485        C  0.79038862  0.52403389  0.72447044    -0.05100
C486        C  0.74534480  0.51174687  0.70353787     0.09100
C487        C  0.70716583  0.53073144  0.68299457    -0.02400
C488        C  0.71337581  0.56176876  0.68668445    -0.00700
C489        C  0.75777253  0.57416405  0.71156972    -0.04300
C490        C  0.79664416  0.55492620  0.72882574     0.02700
C491        C  0.73824605  0.47916462  0.70831590     0.09500
C492        C  0.66135435  0.51823234  0.65870372     0.35400
C493        C  0.84298221  0.56654519  0.75399212     0.38900
C494        C  0.72311590  0.46932718  0.74471264    -0.04700
C495        C  0.72540639  0.43911893  0.75620123     0.02500
C496        C  0.74280267  0.41803136  0.73111663    -0.04300
C497        C  0.75482195  0.42783572  0.69242043    -0.00500
C498        C  0.75226603  0.45815989  0.68103664    -0.03100
C499        C  0.70695418  0.49066686  0.77182411     0.36200
C500        C  0.77016964  0.40684652  0.66426935     0.39800
C501        C  0.71261400  0.43041113  0.79609312     0.38900
C502        C  0.76482128  0.46796621  0.64161787     0.35900
C503        C  0.83028361  0.50468775  0.74342651     0.36500
C504        C  0.67421666  0.58094971  0.66422668     0.39800
N505        N  0.70233241  0.42360834  0.82791567    -0.38300
N506        N  0.69390675  0.50772611  0.79323294    -0.39900
N507        N  0.78257718  0.39012267  0.64187530    -0.37600
N508        N  0.77462482  0.47583391  0.61003689    -0.40000
N509        N  0.62479469  0.50823197  0.63922720    -0.39800
N510        N  0.64311141  0.59629167  0.64589318    -0.37400
N511        N  0.88005527  0.57559982  0.77409628    -0.38500
N512        N  0.86201636  0.48917206  0.75822491    -0.40100
C513        C  0.91475413  0.61490251  0.96478205    -0.05100
C514        C  0.96194355  0.62012739  0.97010744     0.09100
C515        C  0.97487459  0.62461893  0.93036274    -0.02400
C516        C  0.94035207  0.62648435  0.88571033    -0.00700
C517        C  0.89203645  0.62482744  0.88052683    -0.04300
C518        C  0.87981404  0.61712250  0.92035520     0.02700
C519        C  0.99742224  0.62436595  0.01776800     0.09500
C520        C  0.02394349  0.62848358  0.93589889     0.35400
C521        C  0.83144847  0.61247105  0.91698010     0.38900
C522        C  0.02152357  0.60018066  0.04373911    -0.04700
C523        C  0.05668548  0.60494105  0.08762348     0.02500
C524        C  0.06836037  0.63391111  0.10500220    -0.04300
C525        C  0.04419620  0.65803637  0.07896401    -0.00500
C526        C  0.00810821  0.65322810  0.03605679    -0.03100
C527        C  0.01042417  0.57054404  0.02498537     0.36200
C528        C  0.05789787  0.68794829  0.09539150     0.39800
C529        C  0.08099640  0.58015693  0.11476675     0.38900
C530        C  0.98190332  0.67803174  0.01051992     0.35900
C531        C  0.90205700  0.60848123  0.00563967     0.36500
C532        C  0.95520281  0.63017204  0.84545323     0.39800
N533        N  0.10020675  0.56033677  0.13649212    -0.38300
N534        N  0.00152275  0.54689670  0.00993628    -0.39900
N535        N  0.06912424  0.71177067  0.10831448    -0.37600
N536        N  0.96072784  0.69777759  0.99034177    -0.40000
N537        N  0.06309872  0.63163949  0.94053217    -0.39800
N538        N  0.96726765  0.63308307  0.81347193    -0.37400
N539        N  0.79302156  0.60859851  0.91465743    -0.38500
N540        N  0.89198559  0.60327956  0.03821106    -0.40100
C541        C  0.28697374  0.02798234  0.73305802    -0.05100
C542        C  0.24254912  0.01425276  0.71620161     0.09100
C543        C  0.20188975  0.03195684  0.70433324    -0.02400
C544        C  0.20561715  0.06278888  0.71270947    -0.00700
C545        C  0.25007781  0.07635904  0.73082449    -0.04300
C546        C  0.29072231  0.05887141  0.73940428     0.02700
C547        C  0.23918737  0.98107373  0.71556829     0.09500
C548        C  0.15622813  0.01829796  0.68419817     0.35400
C549        C  0.33676182  0.07240718  0.75760743     0.38900
C550        C  0.22715474  0.96672457  0.75083184    -0.04700
C551        C  0.23032524  0.93573504  0.75491328     0.02500
C552        C  0.24618970  0.91838785  0.72383283    -0.04300
C553        C  0.25647826  0.93291750  0.68733335    -0.00500
C554        C  0.25242372  0.96396129  0.68298230    -0.03100
C555        C  0.21341629  0.98411072  0.78449131     0.36200
C556        C  0.27170950  0.91622418  0.65419147     0.39800
C557        C  0.22000541  0.92225870  0.79343218     0.38900
C558        C  0.26266689  0.97852523  0.64531541     0.35900
C559        C  0.32901650  0.01010781  0.74626626     0.36500
C560        C  0.16376137  0.08055392  0.70313224     0.39800
N561        N  0.21175652  0.91163211  0.82420182    -0.38300
N562        N  0.20237036  0.99800084  0.81121674    -0.39900
N563        N  0.28425012  0.90335379  0.62753506    -0.37600
N564        N  0.27080539  0.99022413  0.61531303    -0.40000
N565        N  0.11980153  0.00737017  0.66794559    -0.39800
N566        N  0.13041704  0.09479164  0.69565255    -0.37400
N567        N  0.37350885  0.08314126  0.77200116    -0.38500
N568        N  0.36247842  0.99579558  0.75688340    -0.40100
C569        C  0.21509736  0.73447928  0.55799708    -0.05100
C570        C  0.22588046  0.74892630  0.52230067     0.09100
C571        C  0.24253602  0.77818006  0.52966222    -0.02400
C572        C  0.25087812  0.79244981  0.57348131    -0.00700
C573        C  0.24052655  0.77800050  0.61018026    -0.04300
C574        C  0.21987905  0.74924885  0.60049117     0.02700
C575        C  0.21769505  0.73356921  0.47614471     0.09500
C576        C  0.25167581  0.79347303  0.49197133     0.35400
C577        C  0.20288606  0.73425437  0.63357768     0.38900
C578        C  0.17161070  0.72996770  0.44461835    -0.04700
C579        C  0.16361273  0.71625354  0.40069839     0.02500
C580        C  0.20174914  0.70627648  0.38769395    -0.04300
C581        C  0.24770824  0.70893905  0.41982873    -0.00500
C582        C  0.25565003  0.72237069  0.46405880    -0.03100
C583        C  0.13242497  0.74113411  0.45699357     0.36200
C584        C  0.28671260  0.69769534  0.40728902     0.39800
C585        C  0.11613222  0.71384575  0.36798686     0.38900
C586        C  0.30286625  0.72485243  0.49710211     0.35900
C587        C  0.20027495  0.70383298  0.55134892     0.36500
C588        C  0.27138562  0.82164711  0.58028330     0.39800
N589        N  0.07819645  0.71196595  0.34210024    -0.38300
N590        N  0.10125421  0.74999095  0.46703383    -0.39900
N591        N  0.31765471  0.68858255  0.39710769    -0.37600
N592        N  0.34054278  0.72686675  0.52350035    -0.40000
N593        N  0.25888775  0.80557565  0.46180158    -0.39800
N594        N  0.28802934  0.84488837  0.58493630    -0.37400
N595        N  0.18920149  0.72203232  0.65960303    -0.38500
N596        N  0.18895114  0.67933717  0.54612449    -0.40100
C597        C  0.28250347  0.74424931  0.97270402    -0.05100
C598        C  0.25160199  0.75989960  0.99027190     0.09100
C599        C  0.22985894  0.78572254  0.96816352    -0.02400
C600        C  0.23920665  0.79613117  0.92887728    -0.00700
C601        C  0.26886322  0.77995101  0.91001140    -0.04300
C602        C  0.29019686  0.75383345  0.93188591     0.02700
C603        C  0.23942444  0.74848825  0.03051110     0.09500
C604        C  0.19619110  0.80088929  0.98479509     0.35400
C605        C  0.31972948  0.73674564  0.91234358     0.38900
C606        C  0.25812130  0.76200621  0.07497250    -0.04700
C607        C  0.24444183  0.75223298  0.11231101     0.02500
C608        C  0.21262906  0.72843657  0.10549652    -0.04300
C609        C  0.19352369  0.71525445  0.06060019    -0.00500
C610        C  0.20663976  0.72541053  0.02322922    -0.03100
C611        C  0.29228310  0.78554992  0.08237542     0.36200
C612        C  0.16059745  0.69097356  0.05268568     0.39800
C613        C  0.26498190  0.76584035  0.15811247     0.38900
C614        C  0.18659226  0.71200454  0.97715019     0.35900
C615        C  0.30591377  0.71814982  0.99645415     0.36500
C616        C  0.21611295  0.82279836  0.90664583     0.39800
N617        N  0.28143681  0.77700974  0.19440286    -0.38300
N618        N  0.31957307  0.80427683  0.08814155    -0.39900
N619        N  0.13461677  0.67143335  0.04586650    -0.37600
N620        N  0.17076658  0.70129103  0.94041638    -0.40000
N621        N  0.16913354  0.81276931  0.99795828    -0.39800
N622        N  0.19778837  0.84414090  0.88928268    -0.37400
N623        N  0.34290181  0.72288699  0.89653934    -0.38500
N624        N  0.32468190  0.69737227  0.01551480    -0.40100
C625        C  0.44282713  0.72417574  0.71420952    -0.05100
C626        C  0.48140482  0.72049395  0.75536010     0.09100
C627        C  0.47703088  0.72811297  0.79896184    -0.02400
C628        C  0.43527544  0.74119425  0.80097411    -0.00700
C629        C  0.39845208  0.74773672  0.75923207    -0.04300
C630        C  0.40173780  0.73787172  0.71604481     0.02700
C631        C  0.52802767  0.71223125  0.75168783     0.09500
C632        C  0.51638266  0.72375235  0.84148387     0.35400
C633        C  0.36305009  0.74190902  0.67295037     0.38900
C634        C  0.55944341  0.73470050  0.75019126    -0.04700
C635        C  0.60303472  0.72768497  0.74556036     0.02500
C636        C  0.61573088  0.69778675  0.74167663    -0.04300
C637        C  0.58264684  0.67540025  0.74045376    -0.00500
C638        C  0.53942763  0.68260627  0.74614314    -0.03100
C639        C  0.54674134  0.76529561  0.75372134     0.36200
C640        C  0.59257718  0.64487031  0.73275306     0.39800
C641        C  0.63514388  0.75161092  0.74681198     0.38900
C642        C  0.50669025  0.65951635  0.74675194     0.35900
C643        C  0.44634730  0.71506695  0.66955479     0.36500
C644        C  0.43137791  0.74939167  0.84576293     0.39800
N645        N  0.66045708  0.77084436  0.74773337    -0.38300
N646        N  0.53636182  0.78961886  0.75648509    -0.39900
N647        N  0.60037265  0.62049821  0.72652451    -0.37600
N648        N  0.48056659  0.64110316  0.74733988    -0.40000
N649        N  0.54792146  0.72038210  0.87536762    -0.39800
N650        N  0.42847519  0.75599837  0.88158560    -0.37400
N651        N  0.33301052  0.74454831  0.63774197    -0.38500
N652        N  0.44924468  0.70771744  0.63403601    -0.40100
C653        C  0.98661904  0.75787104  0.81559473    -0.05100
C654        C  0.98695653  0.77392610  0.77607552     0.09100
C655        C  0.94406698  0.77911683  0.73991106    -0.02400
C656        C  0.90216376  0.76633502  0.74152640    -0.00700
C657        C  0.90317729  0.74698545  0.77789320    -0.04300
C658        C  0.94521863  0.74364365  0.81578542     0.02700
C659        C  0.03285652  0.78168709  0.76986109     0.09500
C660        C  0.94338860  0.79625431  0.69976363     0.35400
C661        C  0.94623907  0.72450839  0.85392242     0.38900
C662        C  0.06098100  0.75894982  0.76147054    -0.04700
C663        C  0.10507265  0.76531683  0.75752825     0.02500
C664        C  0.12121969  0.79488772  0.76006889    -0.04300
C665        C  0.09130873  0.81781617  0.76530648    -0.00500
C666        C  0.04814442  0.81117964  0.77149981    -0.03100
C667        C  0.04459179  0.72865353  0.75746294     0.36200
C668        C  0.10414993  0.84841182  0.76316976     0.39800
C669        C  0.13430583  0.74091577  0.75306450     0.38900
C670        C  0.01990027  0.83472558  0.78061618     0.35900
C671        C  0.02941158  0.75515971  0.85527851     0.36500
C672        C  0.85817523  0.77216560  0.70472160     0.39800
N673        N  0.15736302  0.72127537  0.74965008    -0.38300
N674        N  0.03140294  0.70455265  0.75445759    -0.39900
N675        N  0.11418979  0.87281702  0.76108269    -0.37600
N676        N  0.99743721  0.85355607  0.78791471    -0.40000
N677        N  0.94288701  0.81000748  0.66780192    -0.39800
N678        N  0.82308036  0.77711299  0.67552745    -0.37400
N679        N  0.94696399  0.70910732  0.88419720    -0.38500
N680        N  0.06355518  0.75320500  0.88700210    -0.40100
C681        C  0.66306486  0.96684309  0.25575439    -0.05100
C682        C  0.69965104  0.97811334  0.29457392     0.09100
C683        C  0.73039727  0.95834075  0.32579613    -0.02400
C684        C  0.72589401  0.92754041  0.31687252    -0.00700
C685        C  0.69042186  0.91642988  0.27689299    -0.04300
C686        C  0.65821476  0.93621485  0.24719645     0.02700
C687        C  0.70604701  0.01095975  0.30056033     0.09500
C688        C  0.76673978  0.96977051  0.36679208     0.35400
C689        C  0.61942228  0.92517341  0.20789752     0.38900
C690        C  0.67828533  0.02758544  0.32063175    -0.04700
C691        C  0.67558096  0.05861160  0.31604322     0.02500
C692        C  0.70202462  0.07360156  0.29228567    -0.04300
C693        C  0.73394779  0.05678185  0.27698831    -0.00500
C694        C  0.73496084  0.02570133  0.28010699    -0.03100
C695        C  0.65087529  0.01243151  0.34438000     0.36200
C696        C  0.76577814  0.07112679  0.25747836     0.39800
C697        C  0.64317143  0.07442923  0.33351569     0.38900
C698        C  0.76415804  0.00860483  0.26008801     0.35900
C699        C  0.63077183  0.98696932  0.22399381     0.36500
C700        C  0.75812857  0.90730358  0.34820954     0.39800
N701        N  0.61711670  0.08687592  0.34741285    -0.38300
N702        N  0.62921808  0.00030384  0.36349525    -0.39900
N703        N  0.79126362  0.08242971  0.24190058    -0.37600
N704        N  0.78718554  0.99486006  0.24395749    -0.40000
N705        N  0.79564231  0.97893420  0.39963377    -0.39800
N706        N  0.78374335  0.89104641  0.37317250    -0.37400
N707        N  0.58779218  0.91701755  0.17665266    -0.38500
N708        N  0.60515107  0.00310561  0.19877278    -0.40100
C709        C  0.71968719  0.78380405  0.47134386    -0.05100
C710        C  0.73533049  0.75435466  0.47932316     0.09100
C711        C  0.74265511  0.73787274  0.44288058    -0.02400
C712        C  0.73419166  0.75048007  0.39868812    -0.00700
C713        C  0.71708383  0.77989174  0.38980389    -0.04300
C714        C  0.71032248  0.79649425  0.42674206     0.02700
C715        C  0.74423471  0.74031767  0.52603433     0.09500
C716        C  0.75760642  0.70737086  0.45053247     0.35400
C717        C  0.69482423  0.82682087  0.41935455     0.38900
C718        C  0.70647159  0.73069524  0.53958410    -0.04700
C719        C  0.71504957  0.71718632  0.58331710     0.02500
C720        C  0.76142870  0.71204736  0.61290634    -0.04300
C721        C  0.79916127  0.72039495  0.59834843    -0.00500
C722        C  0.79060842  0.73500400  0.55555931    -0.03100
C723        C  0.65881871  0.73431396  0.50813402     0.36200
C724        C  0.84697118  0.71492764  0.62818476     0.39800
C725        C  0.67617484  0.70828838  0.59779820     0.38900
C726        C  0.82957764  0.74493260  0.54202356     0.35900
C727        C  0.71350104  0.80105124  0.50929562     0.36500
C728        C  0.73961579  0.73190472  0.36152613     0.39800
N729        N  0.64524445  0.70116959  0.60947461    -0.38300
N730        N  0.62084063  0.73710433  0.48286179    -0.39900
N731        N  0.88514837  0.71063178  0.65190328    -0.37600
N732        N  0.86055838  0.75286127  0.53106706    -0.40000
N733        N  0.76953770  0.68308536  0.45664443    -0.39800
N734        N  0.74383771  0.71702754  0.33198985    -0.37400
N735        N  0.68253858  0.85105532  0.41351354    -0.38500
N736        N  0.70861281  0.81472491  0.53971150    -0.40100
C737        C  0.75110687  0.72932800  0.07108184    -0.05100
C738        C  0.72725231  0.74160470  0.02699469     0.09100
C739        C  0.69258436  0.76320336  0.02275299    -0.02400
C740        C  0.68252758  0.77291969  0.06248061    -0.00700
C741        C  0.70743265  0.76144244  0.10684216    -0.04300
C742        C  0.74149310  0.73940418  0.11105145     0.02700
C743        C  0.73700142  0.73110171  0.98435796     0.09500
C744        C  0.66778861  0.77579334  0.97749285     0.35400
C745        C  0.76837483  0.72829636  0.15679131     0.38900
C746        C  0.70486601  0.71202004  0.95249418    -0.04700
C747        C  0.71199669  0.70329206  0.91085799     0.02500
C748        C  0.75166773  0.71337439  0.90082534    -0.04300
C749        C  0.78387739  0.73253917  0.93262788    -0.00500
C750        C  0.77674515  0.74120754  0.97457782    -0.03100
C751        C  0.66421239  0.70143062  0.96261852     0.36200
C752        C  0.82452195  0.74295474  0.92247049     0.39800
C753        C  0.67744884  0.68452360  0.87774958     0.38900
C754        C  0.81023160  0.76043328  0.00779840     0.35900
C755        C  0.78592503  0.70663282  0.07524794     0.36500
C756        C  0.64668745  0.79498013  0.05786475     0.39800
N757        N  0.64946385  0.66956569  0.85187824    -0.38300
N758        N  0.63178635  0.69308385  0.97072439    -0.39900
N759        N  0.85688908  0.75131051  0.91425554    -0.37600
N760        N  0.83704771  0.77558826  0.03459726    -0.40000
N761        N  0.64801249  0.78577052  0.94135904    -0.39800
N762        N  0.61807101  0.81253387  0.05432459    -0.37400
N763        N  0.78988979  0.71959348  0.19336823    -0.38500
N764        N  0.81375405  0.68856787  0.07842005    -0.40100
C765        C  0.90759047  0.80912591  0.21530095    -0.05100
C766        C  0.93534863  0.78849916  0.24702323     0.09100
C767        C  0.92091488  0.77849567  0.28381307    -0.02400
C768        C  0.87722231  0.78717642  0.28664364    -0.00700
C769        C  0.84755048  0.80604323  0.25270185    -0.04300
C770        C  0.86393149  0.81801278  0.21817850     0.02700
C771        C  0.97685758  0.77454210  0.23878097     0.09500
C772        C  0.95020359  0.75809269  0.31749422     0.35400
C773        C  0.83446778  0.83767933  0.18325690     0.38900
C774        C  0.02258145  0.78511194  0.26197318    -0.04700
C775        C  0.06174974  0.76952275  0.25845124     0.02500
C776        C  0.05542442  0.74325148  0.23109838    -0.04300
C777        C  0.00913291  0.73347035  0.20640979    -0.00500
C778        C  0.97027541  0.74909487  0.21019646    -0.03100
C779        C  0.02921453  0.81151332  0.29085536     0.36200
C780        C  0.00087417  0.70668943  0.17819934     0.39800
C781        C  0.10844005  0.77927318  0.28633879     0.38900
C782        C  0.92316604  0.73835008  0.18593452     0.35900
C783        C  0.92297302  0.81998671  0.17819860     0.36500
C784        C  0.86224858  0.77606017  0.32390465     0.39800
N785        N  0.14564937  0.78693771  0.30892003    -0.38300
N786        N  0.03438529  0.83259880  0.31386731    -0.39900
N787        N  0.99334008  0.68517502  0.15605592    -0.37600
N788        N  0.88558628  0.72981549  0.16668483    -0.40000
N789        N  0.97368124  0.74181823  0.34428913    -0.39800
N790        N  0.85023797  0.76717918  0.35356869    -0.37400
N791        N  0.81096251  0.85336409  0.15538969    -0.38500
N792        N  0.93523267  0.82860124  0.14854568    -0.40100
C793        C  0.48611060  0.72458239  0.20386721    -0.05100
C794        C  0.48394290  0.71534524  0.24728349     0.09100
C795        C  0.52421224  0.71750618  0.28735550    -0.02400
C796        C  0.56488136  0.73156540  0.28515515    -0.00700
C797        C  0.56626391  0.74278637  0.24236625    -0.04300
C798        C  0.52724894  0.73807975  0.20137412     0.02700
C799        C  0.43791410  0.70748362  0.25258068     0.09500
C800        C  0.52267637  0.70671696  0.33160622     0.35400
C801        C  0.52914480  0.74786166  0.15682694     0.38900
C802        C  0.42213792  0.67810210  0.24862096    -0.04700
C803        C  0.37859691  0.67120262  0.25372628     0.02500
C804        C  0.34968176  0.69392921  0.26204033    -0.04300
C805        C  0.36897511  0.72286659  0.27172296    -0.00500
C806        C  0.41183649  0.72964667  0.26539145    -0.03100
C807        C  0.45068501  0.65498811  0.23879049     0.36200
C808        C  0.34596014  0.74589736  0.28940773     0.39800
C809        C  0.36472831  0.64048921  0.25154468     0.38900
C810        C  0.42906989  0.75978748  0.27138885     0.35900
C811        C  0.44530391  0.72126515  0.16217517     0.36500
C812        C  0.60313963  0.73664097  0.32825023     0.39800
N813        N  0.35395627  0.61594578  0.25010528    -0.38300
N814        N  0.47345713  0.63653770  0.23095232    -0.39900
N815        N  0.32809384  0.76434802  0.30392490    -0.37600
N816        N  0.44292329  0.78376884  0.27587617    -0.40000
N817        N  0.52133424  0.69806885  0.36678675    -0.39800
N818        N  0.63177306  0.74014525  0.36425997    -0.37400
N819        N  0.53095032  0.75560682  0.12134495    -0.38500
N820        N  0.41269317  0.71856890  0.12891250    -0.40100
C821        C  0.48655079  0.85081148  0.05225174    -0.05100
C822        C  0.50030168  0.86495081  0.01772535     0.09100
C823        C  0.54498108  0.87802630  0.03044907    -0.02400
C824        C  0.57673907  0.87541073  0.07641279    -0.00700
C825        C  0.56495613  0.85857137  0.11003308    -0.04300
C826        C  0.51859235  0.84776377  0.09832301     0.02700
C827        C  0.46809413  0.86563860  0.96769777     0.09500
C828        C  0.55881402  0.89349912  0.99567376     0.35400
C829        C  0.50392716  0.83283402  0.13296338     0.38900
C830        C  0.43159584  0.88639241  0.95338746    -0.04700
C831        C  0.39933826  0.88562585  0.90719530     0.02500
C832        C  0.40322884  0.86393168  0.87446367    -0.04300
C833        C  0.44362223  0.84569851  0.88761641    -0.00500
C834        C  0.47486804  0.84595163  0.93423494    -0.03100
C835        C  0.42715607  0.90849539  0.98652874     0.36200
C836        C  0.45394789  0.82673169  0.85358587     0.39800
C837        C  0.36285079  0.90776724  0.89340877     0.38900
C838        C  0.51347054  0.82527283  0.94802203     0.35900
C839        C  0.43982647  0.83845299  0.03973786     0.36500
C840        C  0.62173589  0.89027256  0.08901249     0.39800
N841        N  0.33385195  0.92550267  0.88246206    -0.38300
N842        N  0.42377577  0.92615798  0.01299019    -0.39900
N843        N  0.46301982  0.81207827  0.82640934    -0.37600
N844        N  0.54398274  0.80856541  0.95843483    -0.40000
N845        N  0.56999298  0.90565152  0.96787739    -0.39800
N846        N  0.65758627  0.90214050  0.09918461    -0.37400
N847        N  0.49181683  0.82120533  0.16060084    -0.38500
N848        N  0.40247976  0.82864523  0.02955721    -0.40100
loop_ 
_geom_bond_atom_site_label_1 
_geom_bond_atom_site_label_2 
_geom_bond_distance 
_geom_bond_site_symmetry_2 
_ccdc_geom_bond_type 
Fe1          O17   2.122       .  S
Fe1           O7   2.057       .  S
Fe1          O14   2.078       .  S
Fe1           O6   2.129       .  S
Fe1          O12   1.957       .  S
Fe2           O5   2.071       .  S
Fe2           O9   2.037       .  S
Fe2          O13   2.077       .  S
Fe2          O18   2.066       .  S
Fe2          O12   1.947       .  S
Fe3          O21   2.065       .  S
Fe3           O8   2.082       .  S
Fe3          O15   2.109       .  S
Fe3           O4   2.038       .  S
Fe3          O12   1.951       .  S
O4           C11   1.267       .  A
O5           C19   1.271       .  A
O6           C11   1.285       .  A
O7           C10   1.265       .  A
O8           C20   1.271       .  A
O9           C22   1.267       .  A
C10          O15   1.273       .  A
C10         C797   1.494       .  S
C11         C713   1.502       .  S
O13          C16   1.270       .  A
O14          C16   1.270       .  A
C16         C685   1.489       .  S
O17          C22   1.282       .  A
O18          C20   1.270       .  A
C19          O21   1.273       .  A
C19         C741   1.478       .  S
C20         C769   1.493       .  S
C22         C825   1.504       .  S
Fe23         O39   2.076       .  S
Fe23         O29   2.085       .  S
Fe23         O36   2.112       .  S
Fe23         O28   2.092       .  S
Fe23         O34   1.949       .  S
Fe24         O27   2.041       .  S
Fe24         O31   2.083       .  S
Fe24         O35   2.056       .  S
Fe24         O40   2.084       .  S
Fe24         O34   1.939       .  S
Fe25         O43   2.085       .  S
Fe25         O30   2.076       .  S
Fe25         O37   2.083       .  S
Fe25         O26   2.074       .  S
Fe25         O34   1.941       .  S
O26          C33   1.274       .  A
O27          C41   1.265       .  A
O28          C33   1.281       .  A
O29          C32   1.272       .  A
O30          C42   1.274       .  A
O31          C44   1.274       .  A
C32          O37   1.272       .  A
C32         C629   1.494       .  S
C33         C573   1.518       .  S
O35          C38   1.266       .  A
O36          C38   1.275       .  A
C38         C552   1.510       .  S
O39          C44   1.275       .  A
O40          C42   1.273       .  A
C41          O43   1.273       .  A
C41         C601   1.481       .  S
C42         C664   1.509       .  S
C44         C832   1.511       .  S
Fe45         O61   2.094       .  S
Fe45         O51   2.075       .  S
Fe45         O58   2.064       .  S
Fe45         O50   2.069       .  S
Fe45         O56   1.956       .  S
Fe46         O49   2.076       .  S
Fe46         O53   2.069       .  S
Fe46         O57   2.083       .  S
Fe46         O62   2.050       .  S
Fe46         O56   1.963       .  S
Fe47         O65   2.068       .  S
Fe47         O52   2.089       .  S
Fe47         O59   2.082       .  S
Fe47         O48   2.082       .  S
Fe47         O56   1.959       .  S
O48          C55   1.269       .  A
O49          C63   1.271       .  A
O50          C55   1.266       .  A
O51          C54   1.278       .  A
O52          C64   1.275       .  A
O53          C66   1.269       .  A
C54          O59   1.276       .  A
C54         C720   1.485       .  S
C55         C657   1.489       .  S
O57          C60   1.272       .  A
O58          C60   1.272       .  A
C60         C517   1.508       .  S
O61          C66   1.273       .  A
O62          C64   1.269       .  A
C63          O65   1.270       .  A
C63         C636   1.506       .  S
C64         C748   1.481       .  S
C66         C489   1.505       .  S
Fe67         O83   2.070       .  S
Fe67         O73   2.080       .  S
Fe67         O80   2.073       .  S
Fe67         O72   2.051       .  S
Fe67         O78   1.980       .  S
Fe68         O71   2.062       .  S
Fe68         O75   2.051       .  S
Fe68         O79   2.066       .  S
Fe68         O84   2.046       .  S
Fe68         O78   1.975       .  S
Fe69         O87   2.084       .  S
Fe69         O74   2.072       .  S
Fe69         O81   2.067       .  S
Fe69         O70   2.087       .  S
Fe69         O78   1.975       .  S
O70          C77   1.271       .  A
O71          C85   1.270       .  A
O72          C77   1.263       .  A
O73          C76   1.277       .  A
O74          C86   1.270       .  A
O75          C88   1.263       .  A
C76          O81   1.274       .  A
C76         C580   1.484       .  S
C77         C776   1.500       .  S
O79          C82   1.271       .  A
O80          C82   1.273       .  A
C82         C524   1.477       .  S
O83          C88   1.267       .  A
O84          C86   1.264       .  A
C85          O87   1.273       .  A
C85         C804   1.517       .  S
C86         C608   1.482       .  S
C88         C461   1.500       .  S
Fe89        O105   2.075       .  S
Fe89         O95   2.122       .  S
Fe89        O102   2.127       .  S
Fe89         O94   2.051       .  S
Fe89        O100   1.951       .  S
Fe90         O93   2.050       .  S
Fe90         O97   2.075       .  S
Fe90        O101   2.030       .  S
Fe90        O106   2.072       .  S
Fe90        O100   1.952       .  S
Fe91        O109   2.089       .  S
Fe91         O96   2.060       .  S
Fe91        O103   2.052       .  S
Fe91         O92   2.093       .  S
Fe91        O100   1.956       .  S
O92          C99   1.271       .  A
O93         C107   1.269       .  A
O94          C99   1.264       .  A
O95          C98   1.284       .  A
O96         C108   1.269       .  A
O97         C110   1.268       .  A
C98         O103   1.271       .  A
C98         C328   1.500       .  S
C99         C412   1.485       .  S
O101        C104   1.267       .  A
O102        C104   1.285       .  A
C104        C440   1.494       .  S
O105        C110   1.268       .  A
O106        C108   1.270       .  A
C107        O109   1.275       .  A
C107        C384   1.490       .  S
C108        C349   1.478       .  S
C110        C692   1.514       .  S
Fe111       O127   2.070       .  S
Fe111       O117   2.100       .  S
Fe111       O124   2.098       .  S
Fe111       O116   2.052       .  S
Fe111       O122   1.967       .  S
Fe112       O115   2.069       .  S
Fe112       O119   2.069       .  S
Fe112       O123   2.056       .  S
Fe112       O128   2.060       .  S
Fe112       O122   1.966       .  S
Fe113       O131   2.080       .  S
Fe113       O118   2.063       .  S
Fe113       O125   2.053       .  S
Fe113       O114   2.086       .  S
Fe113       O122   1.964       .  S
O114        C121   1.268       .  A
O115        C129   1.272       .  A
O116        C121   1.263       .  A
O117        C120   1.282       .  A
O118        C130   1.270       .  A
O119        C132   1.266       .  A
C120        O125   1.273       .  A
C120        C216   1.496       .  S
C121        C265   1.487       .  S
O123        C126   1.272       .  A
O124        C126   1.279       .  A
C126        C433   1.498       .  S
O127        C132   1.267       .  A
O128        C130   1.267       .  A
C129        O131   1.272       .  A
C129        C293   1.496       .  S
C130        C237   1.480       .  S
C132        C545   1.492       .  S
Fe133       O149   2.069       .  S
Fe133       O139   2.068       .  S
Fe133       O146   2.096       .  S
Fe133       O138   2.084       .  S
Fe133       O144   1.966       .  S
Fe134       O137   2.047       .  S
Fe134       O141   2.079       .  S
Fe134       O145   2.065       .  S
Fe134       O150   2.071       .  S
Fe134       O144   1.961       .  S
Fe135       O153   2.091       .  S
Fe135       O140   2.067       .  S
Fe135       O147   2.081       .  S
Fe135       O136   2.085       .  S
Fe135       O144   1.966       .  S
O136        C143   1.276       .  A
O137        C151   1.266       .  A
O138        C143   1.279       .  A
O139        C142   1.267       .  A
O140        C152   1.271       .  A
O141        C154   1.272       .  A
C142        O147   1.270       .  A
C142        C300   1.485       .  S
C143        C321   1.494       .  S
O145        C148   1.267       .  A
O146        C148   1.273       .  A
C148        C496   1.510       .  S
O149        C154   1.272       .  A
O150        C152   1.271       .  A
C151        O153   1.274       .  A
C151        C356   1.485       .  S
C152        C272   1.496       .  S
C154        C181   1.514       .  S
Fe155       O171   2.061       .  S
Fe155       O161   2.063       .  S
Fe155       O168   2.080       .  S
Fe155       O160   2.073       .  S
Fe155       O166   1.956       .  S
Fe156       O159   2.043       .  S
Fe156       O163   2.084       .  S
Fe156       O167   2.059       .  S
Fe156       O172   2.089       .  S
Fe156       O166   1.954       .  S
Fe157       O175   2.083       .  S
Fe157       O162   2.059       .  S
Fe157       O169   2.066       .  S
Fe157       O158   2.073       .  S
Fe157       O166   1.957       .  S
O158        C165   1.272       .  A
O159        C173   1.266       .  A
O160        C165   1.274       .  A
O161        C164   1.268       .  A
O162        C174   1.269       .  A
O163        C176   1.273       .  A
C164        O169   1.268       .  A
C164        C377   1.473       .  S
C165        C209   1.481       .  S
O167        C170   1.269       .  A
O168        C170   1.272       .  A
C170        C468   1.494       .  S
O171        C176   1.270       .  A
O172        C174   1.274       .  A
C173        O175   1.272       .  A
C173        C244   1.475       .  S
C174        C405   1.500       .  S
C176        C188   1.513       .  S
C177        C178   1.411       .  A
C177        C182   1.412       .  A
C177        C195   1.453   1_655  S
C178        C183   1.505   1_556  S
C178        C179   1.409       .  A
C179        C180   1.415       .  A
C179        C184   1.452   1_556  S
C180        C181   1.426       .  A
C180        C196   1.451       .  S
C181        C182   1.423       .  A
C182        C185   1.451       .  S
C183        C186   1.410   1_655  A
C183        C190   1.412       .  A
C184        N201   1.157       .  T
C185        N203   1.158       .  T
C186        C187   1.413       .  A
C186        C191   1.452       .  S
C187        C188   1.424       .  A
C187        C193   1.451       .  S
C188        C189   1.424       .  A
C189        C190   1.413   1_455  A
C189        C192   1.452   1_455  S
C190        C194   1.452       .  S
C191        N198   1.157   1_554  T
C192        N199   1.158       .  T
C193        N197   1.158       .  T
C194        N200   1.157       .  T
C195        N204   1.157       .  T
C196        N202   1.157       .  T
C205        C206   1.412       .  A
C205        C210   1.412       .  A
C205        C223   1.450       .  S
C206        C211   1.498       .  S
C206        C207   1.411       .  A
C207        C208   1.412       .  A
C207        C212   1.450       .  S
C208        C209   1.413       .  A
C208        C224   1.450       .  S
C209        C210   1.411       .  A
C210        C213   1.451       .  S
C211        C214   1.406       .  A
C211        C218   1.412       .  A
C212        N229   1.157       .  T
C213        N231   1.157       .  T
C214        C215   1.408       .  A
C214        C219   1.452       .  S
C215        C216   1.423       .  A
C215        C221   1.453       .  S
C216        C217   1.416       .  A
C217        C218   1.416       .  A
C217        C220   1.450       .  S
C218        C222   1.450       .  S
C219        N226   1.157       .  T
C220        N227   1.157       .  T
C221        N225   1.157       .  T
C222        N228   1.157       .  T
C223        N232   1.157       .  T
C224        N230   1.157       .  T
C233        C234   1.411   1_556  A
C233        C238   1.409       .  A
C233        C251   1.451       .  S
C234        C239   1.489       .  S
C234        C235   1.408       .  A
C235        C236   1.407   1_554  A
C235        C240   1.451       .  S
C236        C237   1.415       .  A
C236        C252   1.451       .  S
C237        C238   1.414       .  A
C238        C241   1.451       .  S
C239        C242   1.413       .  A
C239        C246   1.407       .  A
C240        N257   1.157       .  T
C241        N259   1.157       .  T
C242        C243   1.412       .  A
C242        C247   1.450       .  S
C243        C244   1.410       .  A
C243        C249   1.450       .  S
C244        C245   1.415       .  A
C245        C246   1.404       .  A
C245        C248   1.452       .  S
C246        C250   1.452       .  S
C247        N254   1.157       .  T
C248        N255   1.157       .  T
C249        N253   1.157       .  T
C250        N256   1.157       .  T
C251        N260   1.157       .  T
C252        N258   1.157       .  T
C261        C262   1.407       .  A
C261        C266   1.409       .  A
C261        C279   1.452       .  S
C262        C267   1.500       .  S
C262        C263   1.414       .  A
C263        C264   1.417       .  A
C263        C268   1.449       .  S
C264        C265   1.412       .  A
C264        C280   1.449       .  S
C265        C266   1.416       .  A
C266        C269   1.450       .  S
C267        C270   1.411       .  A
C267        C274   1.410       .  A
C268        N285   1.157       .  T
C269        N287   1.157       .  T
C270        C271   1.416       .  A
C270        C275   1.449       .  S
C271        C272   1.417       .  A
C271        C277   1.450       .  S
C272        C273   1.420       .  A
C273        C274   1.409       .  A
C273        C276   1.452       .  S
C274        C278   1.453       .  S
C275        N282   1.157       .  T
C276        N283   1.157       .  T
C277        N281   1.157       .  T
C278        N284   1.157       .  T
C279        N288   1.157       .  T
C280        N286   1.157       .  T
C289        C290   1.411       .  A
C289        C294   1.414       .  A
C289        C307   1.451       .  S
C290        C295   1.505   1_455  S
C290        C291   1.413       .  A
C291        C292   1.413       .  A
C291        C296   1.451       .  S
C292        C293   1.416       .  A
C292        C308   1.452       .  S
C293        C294   1.419       .  A
C294        C297   1.451       .  S
C295        C298   1.416       .  A
C295        C302   1.412       .  A
C296        N313   1.157   1_455  T
C297        N315   1.157       .  T
C298        C299   1.415       .  A
C298        C303   1.451   1_655  S
C299        C300   1.409       .  A
C299        C305   1.449       .  S
C300        C301   1.412       .  A
C301        C302   1.412       .  A
C301        C304   1.450       .  S
C302        C306   1.450       .  S
C303        N310   1.158       .  T
C304        N311   1.157       .  T
C305        N309   1.157       .  T
C306        N312   1.157       .  T
C307        N316   1.157       .  T
C308        N314   1.158       .  T
C317        C318   1.413       .  A
C317        C322   1.416       .  A
C317        C335   1.450       .  S
C318        C323   1.508       .  S
C318        C319   1.413       .  A
C319        C320   1.416       .  A
C319        C324   1.450       .  S
C320        C321   1.414       .  A
C320        C336   1.451       .  S
C321        C322   1.416       .  A
C322        C325   1.451       .  S
C323        C326   1.415       .  A
C323        C330   1.408       .  A
C324        N341   1.157       .  T
C325        N343   1.157       .  T
C326        C327   1.421       .  A
C326        C331   1.449       .  S
C327        C328   1.413       .  A
C327        C333   1.449       .  S
C328        C329   1.421       .  A
C329        C330   1.411       .  A
C329        C332   1.452       .  S
C330        C334   1.452       .  S
C331        N338   1.157       .  T
C332        N339   1.157       .  T
C333        N337   1.157       .  T
C334        N340   1.157       .  T
C335        N344   1.157       .  T
C336        N342   1.157       .  T
C345        C346   1.411       .  A
C345        C350   1.409       .  A
C345        C363   1.450   1_554  S
C346        C351   1.494       .  S
C346        C347   1.411       .  A
C347        C348   1.411       .  A
C347        C352   1.450       .  S
C348        C349   1.412       .  A
C348        C364   1.451       .  S
C349        C350   1.410       .  A
C350        C353   1.449       .  S
C351        C354   1.406   1_554  A
C351        C358   1.414   1_554  A
C352        N369   1.157       .  T
C353        N371   1.156       .  T
C354        C355   1.407       .  A
C354        C359   1.452       .  S
C355        C356   1.419       .  A
C355        C361   1.452       .  S
C356        C357   1.411       .  A
C357        C358   1.414       .  A
C357        C360   1.449       .  S
C358        C362   1.450   1_556  S
C359        N366   1.157       .  T
C360        N367   1.157       .  T
C361        N365   1.157       .  T
C362        N368   1.157       .  T
C363        N372   1.157       .  T
C364        N370   1.157       .  T
C373        C374   1.411   1_455  A
C373        C378   1.408       .  A
C373        C391   1.450       .  S
C374        C379   1.493       .  S
C374        C375   1.413       .  A
C375        C376   1.410   1_655  A
C375        C380   1.451       .  S
C376        C377   1.409       .  A
C376        C392   1.450       .  S
C377        C378   1.410       .  A
C378        C381   1.451       .  S
C379        C382   1.411       .  A
C379        C386   1.407       .  A
C380        N397   1.157       .  T
C381        N399   1.157       .  T
C382        C383   1.410       .  A
C382        C387   1.451       .  S
C383        C384   1.416       .  A
C383        C389   1.452       .  S
C384        C385   1.421       .  A
C385        C386   1.410       .  A
C385        C388   1.452       .  S
C386        C390   1.451       .  S
C387        N394   1.157       .  T
C388        N395   1.158       .  T
C389        N393   1.157       .  T
C390        N396   1.157       .  T
C391        N400   1.157       .  T
C392        N398   1.157       .  T
C401        C402   1.410       .  A
C401        C406   1.416       .  A
C401        C419   1.449       .  S
C402        C407   1.502       .  S
C402        C403   1.409       .  A
C403        C404   1.411       .  A
C403        C408   1.453       .  S
C404        C405   1.423       .  A
C404        C420   1.452       .  S
C405        C406   1.418       .  A
C406        C409   1.449       .  S
C407        C410   1.409       .  A
C407        C414   1.414       .  A
C408        N425   1.157       .  T
C409        N427   1.157       .  T
C410        C411   1.409       .  A
C410        C415   1.452       .  S
C411        C412   1.415       .  A
C411        C417   1.450       .  S
C412        C413   1.411       .  A
C413        C414   1.416       .  A
C413        C416   1.450       .  S
C414        C418   1.449       .  S
C415        N422   1.157       .  T
C416        N423   1.157       .  T
C417        N421   1.157       .  T
C418        N424   1.157       .  T
C419        N428   1.157       .  T
C420        N426   1.158       .  T
C429        C430   1.409       .  A
C429        C434   1.413       .  A
C429        C447   1.450   1_556  S
C430        C435   1.504   1_556  S
C430        C431   1.412       .  A
C431        C432   1.414       .  A
C431        C436   1.448       .  S
C432        C433   1.417       .  A
C432        C448   1.452       .  S
C433        C434   1.419       .  A
C434        C437   1.451       .  S
C435        C438   1.410       .  A
C435        C442   1.413       .  A
C436        N453   1.156       .  T
C437        N455   1.157       .  T
C438        C439   1.414       .  A
C438        C443   1.450       .  S
C439        C440   1.420       .  A
C439        C445   1.452       .  S
C440        C441   1.413       .  A
C441        C442   1.414       .  A
C441        C444   1.449       .  S
C442        C446   1.450       .  S
C443        N450   1.157   1_554  T
C444        N451   1.157       .  T
C445        N449   1.158       .  T
C446        N452   1.157       .  T
C447        N456   1.157       .  T
C448        N454   1.157       .  T
C457        C458   1.408       .  A
C457        C462   1.410       .  A
C457        C475   1.453       .  S
C458        C463   1.498       .  S
C458        C459   1.409       .  A
C459        C460   1.414       .  A
C459        C464   1.450       .  S
C460        C461   1.419       .  A
C460        C476   1.450       .  S
C461        C462   1.424       .  A
C462        C465   1.452       .  S
C463        C466   1.410       .  A
C463        C470   1.409       .  A
C464        N481   1.157       .  T
C465        N483   1.158       .  T
C466        C467   1.414       .  A
C466        C471   1.449       .  S
C467        C468   1.415       .  A
C467        C473   1.450       .  S
C468        C469   1.421       .  A
C469        C470   1.410       .  A
C469        C472   1.452       .  S
C470        C474   1.453       .  S
C471        N478   1.157       .  T
C472        N479   1.158       .  T
C473        N477   1.157       .  T
C474        N480   1.157       .  T
C475        N484   1.157       .  T
C476        N482   1.157       .  T
C485        C486   1.411       .  A
C485        C490   1.414       .  A
C485        C503   1.452       .  S
C486        C491   1.511       .  S
C486        C487   1.413       .  A
C487        C488   1.420       .  A
C487        C492   1.449       .  S
C488        C489   1.417       .  A
C488        C504   1.449       .  S
C489        C490   1.421       .  A
C490        C493   1.452       .  S
C491        C494   1.411       .  A
C491        C498   1.412       .  A
C492        N509   1.157       .  T
C493        N511   1.157       .  T
C494        C495   1.415       .  A
C494        C499   1.452       .  S
C495        C496   1.424       .  A
C495        C501   1.452       .  S
C496        C497   1.420       .  A
C497        C498   1.419       .  A
C497        C500   1.450       .  S
C498        C502   1.449       .  S
C499        N506   1.157       .  T
C500        N507   1.157       .  T
C501        N505   1.157       .  T
C502        N508   1.157       .  T
C503        N512   1.157       .  T
C504        N510   1.157       .  T
C513        C514   1.406       .  A
C513        C518   1.413       .  A
C513        C531   1.452   1_556  S
C514        C519   1.496   1_556  S
C514        C515   1.408       .  A
C515        C516   1.411       .  A
C515        C520   1.452   1_655  S
C516        C517   1.423       .  A
C516        C532   1.451       .  S
C517        C518   1.428       .  A
C518        C521   1.452       .  S
C519        C522   1.412   1_655  A
C519        C526   1.411   1_655  A
C520        N537   1.157       .  T
C521        N539   1.158       .  T
C522        C523   1.414       .  A
C522        C527   1.449       .  S
C523        C524   1.411       .  A
C523        C529   1.450       .  S
C524        C525   1.411       .  A
C525        C526   1.407       .  A
C525        C528   1.453       .  S
C526        C530   1.451   1_455  S
C527        N534   1.157       .  T
C528        N535   1.157       .  T
C529        N533   1.157       .  T
C530        N536   1.157   1_554  T
C531        N540   1.157       .  T
C532        N538   1.157       .  T
C541        C542   1.413       .  A
C541        C546   1.412       .  A
C541        C559   1.451       .  S
C542        C547   1.509   1_545  S
C542        C543   1.415       .  A
C543        C544   1.417       .  A
C543        C548   1.449       .  S
C544        C545   1.413       .  A
C544        C560   1.450       .  S
C545        C546   1.416       .  A
C546        C549   1.452       .  S
C547        C550   1.410       .  A
C547        C554   1.412       .  A
C548        N565   1.157       .  T
C549        N567   1.157       .  T
C550        C551   1.414       .  A
C550        C555   1.452       .  S
C551        C552   1.425       .  A
C551        C557   1.452       .  S
C552        C553   1.420       .  A
C553        C554   1.418       .  A
C553        C556   1.448       .  S
C554        C558   1.451       .  S
C555        N562   1.157       .  T
C556        N563   1.156       .  T
C557        N561   1.158       .  T
C558        N564   1.157       .  T
C559        N568   1.157   1_545  T
C560        N566   1.157       .  T
C569        C570   1.405       .  A
C569        C574   1.411       .  A
C569        C587   1.453       .  S
C570        C575   1.502       .  S
C570        C571   1.410       .  A
C571        C572   1.417       .  A
C571        C576   1.451       .  S
C572        C573   1.424       .  A
C572        C588   1.447       .  S
C573        C574   1.432       .  A
C574        C577   1.452       .  S
C575        C578   1.412       .  A
C575        C582   1.413       .  A
C576        N593   1.157       .  T
C577        N595   1.157       .  T
C578        C579   1.410       .  A
C578        C583   1.451       .  S
C579        C580   1.415       .  A
C579        C585   1.452       .  S
C580        C581   1.412       .  A
C581        C582   1.414       .  A
C581        C584   1.450       .  S
C582        C586   1.450       .  S
C583        N590   1.157       .  T
C584        N591   1.157       .  T
C585        N589   1.157       .  T
C586        N592   1.157       .  T
C587        N596   1.157       .  T
C588        N594   1.157       .  T
C597        C598   1.412       .  A
C597        C602   1.412       .  A
C597        C615   1.450       .  S
C598        C603   1.491   1_556  S
C598        C599   1.407       .  A
C599        C600   1.405       .  A
C599        C604   1.453       .  S
C600        C601   1.419       .  A
C600        C616   1.453       .  S
C601        C602   1.412       .  A
C602        C605   1.450       .  S
C603        C606   1.410       .  A
C603        C610   1.409       .  A
C604        N621   1.157       .  T
C605        N623   1.157       .  T
C606        C607   1.410       .  A
C606        C611   1.452       .  S
C607        C608   1.416       .  A
C607        C613   1.450       .  S
C608        C609   1.415       .  A
C609        C610   1.407       .  A
C609        C612   1.451       .  S
C610        C614   1.452   1_554  S
C611        N618   1.157       .  T
C612        N619   1.157       .  T
C613        N617   1.157       .  T
C614        N620   1.157       .  T
C615        N624   1.157   1_556  T
C616        N622   1.157       .  T
C625        C626   1.407       .  A
C625        C630   1.410       .  A
C625        C643   1.452       .  S
C626        C631   1.503       .  S
C626        C627   1.414       .  A
C627        C628   1.418       .  A
C627        C632   1.450       .  S
C628        C629   1.414       .  A
C628        C644   1.450       .  S
C629        C630   1.417       .  A
C630        C633   1.448       .  S
C631        C634   1.409       .  A
C631        C638   1.410       .  A
C632        N649   1.157       .  T
C633        N651   1.156       .  T
C634        C635   1.412       .  A
C634        C639   1.453       .  S
C635        C636   1.424       .  A
C635        C641   1.452       .  S
C636        C637   1.421       .  A
C637        C638   1.416       .  A
C637        C640   1.450       .  S
C638        C642   1.450       .  S
C639        N646   1.157       .  T
C640        N647   1.157       .  T
C641        N645   1.158       .  T
C642        N648   1.157       .  T
C643        N652   1.157       .  T
C644        N650   1.157       .  T
C653        C654   1.416       .  A
C653        C658   1.415       .  A
C653        C671   1.450   1_655  S
C654        C659   1.510   1_655  S
C654        C655   1.414       .  A
C655        C656   1.414       .  A
C655        C660   1.450       .  S
C656        C657   1.413       .  A
C656        C672   1.450       .  S
C657        C658   1.411       .  A
C658        C661   1.449       .  S
C659        C662   1.413       .  A
C659        C666   1.412       .  A
C660        N677   1.157       .  T
C661        N679   1.157       .  T
C662        C663   1.413       .  A
C662        C667   1.453       .  S
C663        C664   1.422       .  A
C663        C669   1.451       .  S
C664        C665   1.422       .  A
C665        C666   1.418       .  A
C665        C668   1.451       .  S
C666        C670   1.450       .  S
C667        N674   1.157       .  T
C668        N675   1.158       .  T
C669        N673   1.157       .  T
C670        N676   1.157   1_455  T
C671        N680   1.157       .  T
C672        N678   1.157       .  T
C681        C682   1.411       .  A
C681        C686   1.410       .  A
C681        C699   1.452       .  S
C682        C687   1.505   1_565  S
C682        C683   1.414       .  A
C683        C684   1.419       .  A
C683        C688   1.448       .  S
C684        C685   1.412       .  A
C684        C700   1.449       .  S
C685        C686   1.414       .  A
C686        C689   1.450       .  S
C687        C690   1.408       .  A
C687        C694   1.409       .  A
C688        N705   1.157       .  T
C689        N707   1.157       .  T
C690        C691   1.416       .  A
C690        C695   1.451       .  S
C691        C692   1.426       .  A
C691        C697   1.451       .  S
C692        C693   1.424       .  A
C693        C694   1.415       .  A
C693        C696   1.451       .  S
C694        C698   1.451       .  S
C695        N702   1.157       .  T
C696        N703   1.157       .  T
C697        N701   1.158       .  T
C698        N704   1.157   1_545  T
C699        N708   1.157   1_565  T
C700        N706   1.157       .  T
C709        C710   1.414       .  A
C709        C714   1.418       .  A
C709        C727   1.450       .  S
C710        C715   1.503       .  S
C710        C711   1.407       .  A
C711        C712   1.409       .  A
C711        C716   1.453       .  S
C712        C713   1.427       .  A
C712        C728   1.454       .  S
C713        C714   1.415       .  A
C714        C717   1.449       .  S
C715        C718   1.413       .  A
C715        C722   1.413       .  A
C716        N733   1.157       .  T
C717        N735   1.157       .  T
C718        C719   1.414       .  A
C718        C723   1.450       .  S
C719        C720   1.412       .  A
C719        C725   1.451       .  S
C720        C721   1.413       .  A
C721        C722   1.412       .  A
C721        C724   1.451       .  S
C722        C726   1.451       .  S
C723        N730   1.157       .  T
C724        N731   1.157       .  T
C725        N729   1.157       .  T
C726        N732   1.157       .  T
C727        N736   1.157       .  T
C728        N734   1.158       .  T
C737        C738   1.412       .  A
C737        C742   1.412       .  A
C737        C755   1.450       .  S
C738        C743   1.495   1_554  S
C738        C739   1.412       .  A
C739        C740   1.407       .  A
C739        C744   1.451   1_554  S
C740        C741   1.411       .  A
C740        C756   1.450       .  S
C741        C742   1.413       .  A
C742        C745   1.451       .  S
C743        C746   1.408       .  A
C743        C750   1.414       .  A
C744        N761   1.157       .  T
C745        N763   1.157       .  T
C746        C747   1.406       .  A
C746        C751   1.452       .  S
C747        C748   1.416       .  A
C747        C753   1.452       .  S
C748        C749   1.411       .  A
C749        C750   1.414       .  A
C749        C752   1.450       .  S
C750        C754   1.450   1_556  S
C751        N758   1.157       .  T
C752        N759   1.157       .  T
C753        N757   1.157       .  T
C754        N760   1.157       .  T
C755        N764   1.157       .  T
C756        N762   1.156       .  T
C765        C766   1.410       .  A
C765        C770   1.414       .  A
C765        C783   1.450       .  S
C766        C771   1.502       .  S
C766        C767   1.411       .  A
C767        C768   1.412       .  A
C767        C772   1.451       .  S
C768        C769   1.415       .  A
C768        C784   1.451       .  S
C769        C770   1.418       .  A
C770        C773   1.451       .  S
C771        C774   1.409   1_655  A
C771        C778   1.410       .  A
C772        N789   1.157       .  T
C773        N791   1.157       .  T
C774        C775   1.416       .  A
C774        C779   1.450       .  S
C775        C776   1.420       .  A
C775        C781   1.451       .  S
C776        C777   1.420       .  A
C777        C778   1.412   1_455  A
C777        C780   1.451       .  S
C778        C782   1.452       .  S
C779        N786   1.157       .  T
C780        N787   1.157   1_455  T
C781        N785   1.157       .  T
C782        N788   1.157       .  T
C783        N792   1.157       .  T
C784        N790   1.157       .  T
C793        C794   1.412       .  A
C793        C798   1.417       .  A
C793        C811   1.449       .  S
C794        C799   1.503       .  S
C794        C795   1.407       .  A
C795        C796   1.412       .  A
C795        C800   1.453       .  S
C796        C797   1.417       .  A
C796        C812   1.444       .  S
C797        C798   1.414       .  A
C798        C801   1.450       .  S
C799        C802   1.408       .  A
C799        C806   1.409       .  A
C800        N817   1.157       .  T
C801        N819   1.157       .  T
C802        C803   1.417       .  A
C802        C807   1.450       .  S
C803        C804   1.427       .  A
C803        C809   1.451       .  S
C804        C805   1.425       .  A
C805        C806   1.412       .  A
C805        C808   1.451       .  S
C806        C810   1.453       .  S
C807        N814   1.157       .  T
C808        N815   1.158       .  T
C809        N813   1.158       .  T
C810        N816   1.157       .  T
C811        N820   1.157       .  T
C812        N818   1.155       .  T
C821        C822   1.414       .  A
C821        C826   1.419       .  A
C821        C839   1.450       .  S
C822        C827   1.506   1_554  S
C822        C823   1.408       .  A
C823        C824   1.411       .  A
C823        C828   1.451   1_554  S
C824        C825   1.423       .  A
C824        C840   1.452       .  S
C825        C826   1.417       .  A
C826        C829   1.450       .  S
C827        C830   1.409       .  A
C827        C834   1.411       .  A
C828        N845   1.157       .  T
C829        N847   1.157       .  T
C830        C831   1.415       .  A
C830        C835   1.451       .  S
C831        C832   1.424       .  A
C831        C837   1.451       .  S
C832        C833   1.422       .  A
C833        C834   1.415       .  A
C833        C836   1.450       .  S
C834        C838   1.451       .  S
C835        N842   1.157   1_556  T
C836        N843   1.157       .  T
C837        N841   1.158       .  T
C838        N844   1.157       .  T
C839        N848   1.157       .  T
C840        N846   1.158       .  T
