geometry optimzed in LAMMPS
_audit_creation_date              2020-12-01 
_audit_creation_method            'lammps2cif' 
_symmetry_space_group_name_H-M    'P1' 
_symmetry_Int_Tables_number       1 
_symmetry_cell_setting            triclinic 
loop_ 
_symmetry_equiv_pos_as_xyz 
  x,y,z 
_cell_length_a                    49.77892014 
_cell_length_b                    27.671234256280655 
_cell_length_c                    30.14383662065125 
_cell_angle_alpha                 89.5679347167284 
_cell_angle_beta                  96.43684671712944 
_cell_angle_gamma                 89.37420208174008 
loop_ 
_atom_site_label 
_atom_site_type_symbol 
_atom_site_fract_x 
_atom_site_fract_y 
_atom_site_fract_z 
_atom_site_charge 
Fe1        Fe  0.83834107  0.51741515  0.71368052     1.65800
Fe2        Fe  0.83936125  0.62812549  0.66334170     1.73200
Fe3        Fe  0.78764181  0.59914389  0.72487673     1.54400
O4          O  0.76983800  0.53228169  0.71711938    -0.81900
O5          O  0.83575898  0.68650553  0.70572721    -0.80200
O6          O  0.80232304  0.48045027  0.70554550    -0.84400
O7          O  0.83589988  0.52486266  0.78087781    -0.79300
O8          O  0.76897054  0.61806973  0.66226546    -0.81000
O9          O  0.87803907  0.61665386  0.69365219    -0.83800
C10         C  0.82182411  0.55020706  0.80490443     0.97000
C11         C  0.77785007  0.48987023  0.70998681     1.04400
O12         O  0.82189532  0.58171032  0.70100794    -1.12800
O13         O  0.84469163  0.57585154  0.61577806    -0.75200
O14         O  0.84081671  0.50418771  0.64748932    -0.78700
O15         O  0.80381787  0.58070534  0.78912159    -0.79400
C16         C  0.84332659  0.53001268  0.61349854     0.95900
O17         O  0.87772795  0.54304480  0.72332464    -0.77300
O18         O  0.80318220  0.64531087  0.62713941    -0.82500
C19         C  0.81728219  0.69836616  0.72955246     0.98500
C20         C  0.77830354  0.63749762  0.62898749     1.04400
O21         O  0.79870357  0.66961272  0.73728563    -0.78200
C22         C  0.89014493  0.58087355  0.71353544     1.02700
Fe23       Fe  0.65117119  0.93914675  0.27199643     1.65800
Fe24       Fe  0.64860321  0.82995800  0.31608949     1.73200
Fe25       Fe  0.70067361  0.85876768  0.26094909     1.54400
O26         O  0.69084679  0.89947755  0.20196303    -0.81900
O27         O  0.68171720  0.82831932  0.36138508    -0.80200
O28         O  0.64887871  0.92848167  0.20522048    -0.84400
O29         O  0.68897277  0.97291603  0.27171154    -0.79300
O30         O  0.68356989  0.80066986  0.22763896    -0.81000
O31         O  0.63318476  0.88306000  0.35643807    -0.83800
C32         C  0.71330322  0.96031149  0.28530952     0.97000
C33         C  0.66846125  0.91744921  0.18365246     1.04400
O34         O  0.66667451  0.87568848  0.28213680    -1.12800
O35         O  0.61448677  0.83376539  0.27114245    -0.75200
O36         O  0.61106792  0.91387989  0.27096280    -0.78700
O37         O  0.71967055  0.91639871  0.29340383    -0.79400
C38         C  0.60021216  0.87218103  0.26672736     0.95900
O39         O  0.65384581  0.95009126  0.33900176    -0.77300
O40         O  0.66357958  0.76939330  0.28290386    -0.82500
C41         C  0.70309387  0.80697452  0.35360924     0.98500
C42         C  0.67677647  0.76427973  0.24915592     1.04400
O43         O  0.71310607  0.81346170  0.31684012    -0.78200
C44         C  0.64216368  0.92510574  0.36632229     1.02700
Fe45       Fe  0.64896747  0.01570048  0.76681062     1.65800
Fe46       Fe  0.64380481  0.12743061  0.81305237     1.73200
Fe47       Fe  0.69841241  0.09884746  0.75808161     1.54400
O48         O  0.71757327  0.03236077  0.76748466    -0.81900
O49         O  0.64772112  0.18595559  0.76966106    -0.80200
O50         O  0.68575574  0.97989771  0.77705273    -0.84400
O51         O  0.65241549  0.02456039  0.69978526    -0.79300
O52         O  0.71466564  0.11821725  0.82197913    -0.81000
O53         O  0.60588948  0.11341696  0.78019190    -0.83800
C54         C  0.66607131  0.05130960  0.67625169     0.97000
C55         C  0.71024005  0.98966809  0.77432998     1.04400
O56         O  0.66360504  0.08078869  0.77903777    -1.12800
O57         O  0.63919421  0.07541523  0.86192746    -0.75200
O58         O  0.64521143  0.00263140  0.83274722    -0.78700
O59         O  0.68368333  0.08121581  0.69297448    -0.79400
C60         C  0.64176462  0.02961065  0.86547456     0.95900
O61         O  0.60892047  0.03819730  0.75579826    -0.77300
O62         O  0.67843148  0.14725467  0.85123773    -0.82500
C63         C  0.66799177  0.19827980  0.74998553     0.98500
C64         C  0.70366039  0.13980439  0.85264078     1.04400
O65         O  0.68712703  0.16925571  0.74478671    -0.78200
C66         C  0.59517999  0.07561038  0.76294335     1.02700
Fe67       Fe  0.84278736  0.42815787  0.21685588     1.65800
Fe68       Fe  0.84410056  0.32595026  0.16265327     1.73200
Fe69       Fe  0.79123646  0.35251851  0.21909506     1.54400
O70         O  0.80255739  0.38281847  0.28275517    -0.81900
O71         O  0.81180086  0.33172101  0.11608366    -0.80200
O72         O  0.84529599  0.40529170  0.28131033    -0.84400
O73         O  0.80638854  0.46534206  0.22397474    -0.79300
O74         O  0.80514502  0.28683387  0.24462848    -0.81000
O75         O  0.86014506  0.38377064  0.12882818    -0.83800
C76         C  0.78162784  0.45784561  0.21045194     0.97000
C77         C  0.82521684  0.39733642  0.30251866     1.04400
O78         O  0.82599650  0.36813067  0.20026613    -1.12800
O79         O  0.87832036  0.32172708  0.20749540    -0.75200
O80         O  0.88228096  0.40122849  0.21412110    -0.78700
O81         O  0.77376219  0.41708007  0.19563381    -0.79400
C82         C  0.89274433  0.35885253  0.21550884     0.95900
O83         O  0.83921359  0.44845998  0.15075714    -0.77300
O84         O  0.82882498  0.26224319  0.19039812    -0.82500
C85         C  0.78843126  0.31685782  0.12019071     0.98500
C86         C  0.81529361  0.25338890  0.22318533     1.04400
O87         O  0.77791611  0.31995530  0.15704275    -0.78200
C88         C  0.84993557  0.42574080  0.12065948     1.02700
Fe89       Fe  0.14573556  0.50451422  0.77152908     1.65800
Fe90       Fe  0.14643411  0.61652038  0.81909386     1.73200
Fe91       Fe  0.19773080  0.58181879  0.75954245     1.54400
O92         O  0.21499104  0.51459362  0.76981835    -0.81900
O93         O  0.14878694  0.67231405  0.77198638    -0.80200
O94         O  0.18151948  0.46488878  0.77795860    -0.84400
O95         O  0.14742730  0.51152483  0.70392097    -0.79300
O96         O  0.21680482  0.60271836  0.82210893    -0.81000
O97         O  0.10714964  0.60533410  0.79197898    -0.83800
C98         C  0.16245518  0.53403746  0.67942489     0.97000
C99         C  0.20631131  0.47259159  0.77517461     1.04400
O100        O  0.16317894  0.56761836  0.78303791    -1.12800
O101        O  0.14440640  0.56529760  0.87023183    -0.75200
O102        O  0.14403656  0.49240542  0.83854145    -0.78700
O103        O  0.18144737  0.56199159  0.69516428    -0.79400
C104        C  0.14514417  0.51914191  0.87273943     0.95900
O105        O  0.10633117  0.53201916  0.76270273    -0.77300
O106        O  0.18243492  0.63645715  0.85237027    -0.82500
C107        C  0.16799985  0.68184392  0.74876468     0.98500
C108        C  0.20738171  0.62759186  0.85241096     1.04400
O109        O  0.18685629  0.65178323  0.74474496    -0.78200
C110        C  0.09455458  0.57080375  0.77236432     1.02700
Fe111      Fe  0.34219715  0.91855248  0.21914376     1.65800
Fe112      Fe  0.34882137  0.80884352  0.17498835     1.73200
Fe113      Fe  0.29191431  0.83777189  0.22280720     1.54400
O114        O  0.30133949  0.86924861  0.28572688    -0.81900
O115        O  0.31708736  0.79628857  0.12767819    -0.80200
O116        O  0.34158047  0.90551519  0.28580238    -0.84400
O117        O  0.30467203  0.95422159  0.21665264    -0.79300
O118        O  0.30501124  0.77236471  0.25014672    -0.81000
O119        O  0.36161604  0.86355436  0.13322847    -0.83800
C120        C  0.28016465  0.94363217  0.20452046     0.97000
C121        C  0.32202521  0.89033628  0.30558695     1.04400
O122        O  0.32745238  0.85453736  0.20577467    -1.12800
O123        O  0.38269667  0.81641789  0.22010124    -0.75200
O124        O  0.38287279  0.89617296  0.22426311    -0.78700
O125        O  0.27323021  0.90044060  0.19671859    -0.79400
C126        C  0.39523808  0.85561124  0.22719265     0.95900
O127        O  0.34278983  0.93230097  0.15239286    -0.77300
O128        O  0.33794338  0.74848479  0.21086686    -0.82500
C129        C  0.29179057  0.79207028  0.12855767     0.98500
C130        C  0.32055600  0.73979241  0.23774680     1.04400
O131        O  0.27972729  0.80432207  0.16197866    -0.78200
C132        C  0.35471516  0.90767692  0.12497502     1.02700
Fe133      Fe  0.14803722  0.42382687  0.26858258     1.65800
Fe134      Fe  0.14273968  0.31602595  0.31459153     1.73200
Fe135      Fe  0.20149440  0.34924345  0.27795584     1.54400
O136        O  0.19390672  0.37975693  0.21257641    -0.81900
O137        O  0.17089587  0.30865960  0.36775826    -0.80200
O138        O  0.15058563  0.40646184  0.20377752    -0.84400
O139        O  0.18417263  0.46071370  0.26721845    -0.79300
O140        O  0.19419981  0.28235336  0.25043279    -0.81000
O141        O  0.12619676  0.37199198  0.35158364    -0.83800
C142        C  0.20749389  0.45433332  0.28778851     0.97000
C143        C  0.17251228  0.39489377  0.18806375     1.04400
O144        O  0.16421212  0.36160999  0.28612852    -1.12800
O145        O  0.11194655  0.32083870  0.26307829    -0.75200
O146        O  0.10801332  0.39991248  0.26504777    -0.78700
O147        O  0.21347822  0.41423969  0.30671731    -0.79400
C148        C  0.09740969  0.35867506  0.25841851     0.95900
O149        O  0.14765032  0.43861445  0.33483208    -0.77300
O150        O  0.15933646  0.25524565  0.28385707    -0.82500
C151        C  0.19606769  0.30174124  0.37103794     0.98500
C152        C  0.17942590  0.24820981  0.26139531     1.04400
O153        O  0.21065390  0.31541039  0.34099180    -0.78200
C154        C  0.13582724  0.41364025  0.36232544     1.02700
Fe155      Fe  0.34059326  0.99770168  0.72086053     1.65800
Fe156      Fe  0.33742522  0.10831928  0.66856561     1.73200
Fe157      Fe  0.28793471  0.07562631  0.73248044     1.54400
O158        O  0.27194966  0.00787118  0.72555103    -0.81900
O159        O  0.33397824  0.16615592  0.71162450    -0.80200
O160        O  0.30550907  0.95748161  0.71572714    -0.84400
O161        O  0.33952786  0.00710343  0.78849297    -0.79300
O162        O  0.26767455  0.09249215  0.67043338    -0.81000
O163        O  0.37725094  0.09834417  0.69544037    -0.83800
C164        C  0.32496858  0.03158107  0.81249015     0.97000
C165        C  0.28075968  0.96599741  0.71885598     1.04400
O166        O  0.32214782  0.06061194  0.70760733    -1.12800
O167        O  0.34122280  0.05631309  0.62072265    -0.75200
O168        O  0.34260563  0.98391097  0.65432942    -0.78700
O169        O  0.30553499  0.05929590  0.79665483    -0.79400
C170        C  0.34208274  0.01038426  0.61965556     0.95900
O171        O  0.37923817  0.02551228  0.72724058    -0.77300
O172        O  0.30025403  0.12451716  0.63475809    -0.82500
C173        C  0.31475912  0.17706918  0.73432430     0.98500
C174        C  0.27571611  0.11425217  0.63720901     1.04400
O175        O  0.29704203  0.14690757  0.74264349    -0.78200
C176        C  0.39050274  0.06347510  0.71506366     1.02700
C177        C  0.25628109  0.13047077  0.59954715     0.01100
C178        C  0.23825221  0.16875208  0.60544290     0.03900
C179        C  0.22693739  0.19610564  0.56831874    -0.12100
C180        C  0.23349823  0.18450029  0.52536316     0.23200
C181        C  0.24891262  0.14266763  0.51904549    -0.12700
C182        C  0.26007967  0.11545519  0.55617195     0.04700
C183        C  0.22400849  0.21562013  0.48655998     0.27100
C184        C  0.20106230  0.20221254  0.45832234    -0.13400
C185        C  0.19301357  0.22933111  0.41964108     0.05200
C186        C  0.20713235  0.27187748  0.40994966    -0.09300
C187        C  0.23011660  0.28540352  0.43851094     0.06000
C188        C  0.23874382  0.25683239  0.47652199    -0.13700
Br189      Br  0.25551287  0.12388194  0.45965173    -0.05800
Br190      Br  0.23017509  0.18464697  0.66446713    -0.00200
Br191      Br  0.16334392  0.20527241  0.37902244     0.00300
Br192      Br  0.27083268  0.27357753  0.51496224    -0.04100
Br193      Br  0.28044072  0.05733096  0.54798630     0.00400
Br194      Br  0.20331294  0.25033697  0.57617230    -0.03400
Br195      Br  0.18079556  0.14601094  0.47267142    -0.04300
Br196      Br  0.24905121  0.34366401  0.42681103    -0.00300
C197        C  0.22827859  0.49323631  0.28688632     0.01100
C198        C  0.25639728  0.48142381  0.29035052     0.03900
C199        C  0.27561142  0.51762756  0.28522035    -0.12100
C200        C  0.26721919  0.56559586  0.27562392     0.23200
C201        C  0.23953463  0.57771844  0.27200324    -0.12700
C202        C  0.22018996  0.54229269  0.27847683     0.04700
C203        C  0.28723876  0.60405073  0.26940473     0.27100
C204        C  0.29410763  0.63734810  0.30376268    -0.13400
C205        C  0.30794826  0.67989679  0.29498752     0.05200
C206        C  0.31550752  0.68914562  0.25182739    -0.09300
C207        C  0.31162065  0.65245438  0.21915872     0.06000
C208        C  0.29695605  0.61066212  0.22767786    -0.13700
Br209      Br  0.22815741  0.64347201  0.25688721    -0.05800
Br210      Br  0.26963684  0.41565945  0.29947472    -0.00200
Br211      Br  0.31546788  0.72621748  0.34205553     0.00300
Br212      Br  0.28779775  0.56455270  0.18076090    -0.04100
Br213      Br  0.18285164  0.56322518  0.27685810     0.00400
Br214      Br  0.31369806  0.50160798  0.29021998    -0.03400
Br215      Br  0.28244649  0.62616991  0.36192908    -0.04300
Br216      Br  0.32374836  0.66048207  0.16087582    -0.00300
C217        C  0.25901887  0.98291773  0.20157157     0.01100
C218        C  0.26365167  0.02766299  0.18102660     0.03900
C219        C  0.24653592  0.06786553  0.18589491    -0.12100
C220        C  0.22424114  0.06375909  0.21070665     0.23200
C221        C  0.21801754  0.01806371  0.22757447    -0.12700
C222        C  0.23518421  0.97772452  0.22293016     0.04700
C223        C  0.21053383  0.10856543  0.22524282     0.27100
C224        C  0.22296636  0.13397441  0.26209257    -0.13400
C225        C  0.21210560  0.17840126  0.27450047     0.05200
C226        C  0.18825527  0.19814076  0.25073625    -0.09300
C227        C  0.17539834  0.17211849  0.21442222     0.06000
C228        C  0.18634072  0.12723753  0.20198166    -0.13700
Br229      Br  0.18681014  0.01178009  0.25968460    -0.05800
Br230      Br  0.29307648  0.03372844  0.14500788    -0.00200
Br231      Br  0.23119207  0.21247085  0.32345143     0.00300
Br232      Br  0.16857051  0.09158341  0.15277730    -0.04100
Br233      Br  0.22674132  0.91663936  0.24924882     0.00400
Br234      Br  0.25453325  0.12972515  0.16086313    -0.03400
Br235      Br  0.25561456  0.10805364  0.29515725    -0.04300
Br236      Br  0.14400638  0.19979357  0.17998913    -0.00300
C237        C  0.32292815  0.90085694  0.35333561     0.01100
C238        C  0.34174958  0.87676179  0.38453201     0.03900
C239        C  0.34528591  0.89208268  0.42914077    -0.12100
C240        C  0.33011582  0.93160324  0.44235816     0.23200
C241        C  0.31105212  0.95519674  0.41133614    -0.12700
C242        C  0.30748617  0.93987473  0.36685999     0.04700
C243        C  0.33458776  0.94928052  0.48864908     0.27100
C244        C  0.31857738  0.93188605  0.52067427    -0.13400
C245        C  0.32183046  0.95034184  0.56418989     0.05200
C246        C  0.34105675  0.98684568  0.57566021    -0.09300
C247        C  0.35740474  0.00358530  0.54345855     0.06000
C248        C  0.35412599  0.98477476  0.50003426    -0.13700
Br249      Br  0.29071521  0.00989621  0.42943520    -0.05800
Br250      Br  0.36306841  0.82362319  0.36594650    -0.00200
Br251      Br  0.29799096  0.92807511  0.60621425     0.00300
Br252      Br  0.37576793  0.00847685  0.45540104    -0.04100
Br253      Br  0.28296336  0.97486168  0.32376599     0.00400
Br254      Br  0.37151688  0.86038988  0.47199141    -0.03400
Br255      Br  0.29124385  0.88434054  0.50388972    -0.04300
Br256      Br  0.38463728  0.05173878  0.55858197    -0.00300
C257        C  0.35947557  0.93087258  0.08133445     0.01100
C258        C  0.36239260  0.90302907  0.04268120     0.03900
C259        C  0.35899996  0.92520731  0.00010219    -0.12100
C260        C  0.35312149  0.97505887  0.99563990     0.23200
C261        C  0.35373376  0.00372646  0.03400821    -0.12700
C262        C  0.35810810  0.98207372  0.07666607     0.04700
C263        C  0.34477809  0.99618671  0.95059834     0.27100
C264        C  0.36297261  0.02337445  0.92805646    -0.13400
C265        C  0.35549660  0.03870828  0.88368351     0.05200
C266        C  0.33039949  0.02519467  0.86121330    -0.09300
C267        C  0.31175654  0.00010751  0.88432920     0.06000
C268        C  0.31873143  0.98651667  0.92917901    -0.13700
Br269      Br  0.34703639  0.07250255  0.02810546    -0.05800
Br270      Br  0.37093905  0.83459458  0.04600005    -0.00200
Br271      Br  0.37929283  0.07886330  0.85356963     0.00300
Br272      Br  0.29284169  0.95314098  0.96092932    -0.04100
Br273      Br  0.36457888  0.02362093  0.12794975     0.00400
Br274      Br  0.36092824  0.88694150  0.94712305    -0.03400
Br275      Br  0.39846913  0.03785013  0.95704772    -0.04300
Br276      Br  0.27740458  0.98115041  0.85361428    -0.00300
C277        C  0.22507629  0.64970337  0.88943940     0.01100
C278        C  0.22150391  0.69947220  0.89712605     0.03900
C279        C  0.23071000  0.71954812  0.93844723    -0.12100
C280        C  0.24771044  0.69232494  0.96996193     0.23200
C281        C  0.25359440  0.64351587  0.96085535    -0.12700
C282        C  0.24065115  0.62143577  0.92217654     0.04700
C283        C  0.25923070  0.71626130  0.01179518     0.27100
C284        C  0.27657908  0.75585455  0.00891872    -0.13400
C285        C  0.28338910  0.78478814  0.04631940     0.05200
C286        C  0.27669971  0.77046559  0.08856649    -0.09300
C287        C  0.25953270  0.73057744  0.09194075     0.06000
C288        C  0.25007433  0.70455669  0.05328318    -0.13700
Br289      Br  0.27894915  0.60681776  0.00132281    -0.05800
Br290      Br  0.20389535  0.74081341  0.85097079    -0.00200
Br291      Br  0.29925593  0.84709544  0.03895471     0.00300
Br292      Br  0.22424362  0.65357113  0.05717506    -0.04100
Br293      Br  0.24134839  0.55222941  0.91730068     0.00400
Br294      Br  0.21838401  0.78355358  0.95284747    -0.03400
Br295      Br  0.29116224  0.77084972  0.95368491    -0.04300
Br296      Br  0.24910589  0.71090204  0.14907711    -0.00300
C297        C  0.14915010  0.49490635  0.91738584     0.01100
C298        C  0.13381305  0.50883094  0.95193763     0.03900
C299        C  0.13919983  0.48775197  0.99481148    -0.12100
C300        C  0.15945847  0.45175158  0.00327197     0.23200
C301        C  0.17401207  0.43624612  0.96857731    -0.12700
C302        C  0.16927736  0.45816706  0.92609146     0.04700
C303        C  0.16566015  0.43097130  0.04897960     0.27100
C304        C  0.18779120  0.44817463  0.07766192    -0.13400
C305        C  0.19127006  0.43396356  0.12295728     0.05200
C306        C  0.17288587  0.40171043  0.13944337    -0.09300
C307        C  0.15209337  0.38155077  0.10977852     0.06000
C308        C  0.14850289  0.39614757  0.06468638    -0.13700
Br309      Br  0.20065895  0.38492404  0.97968190    -0.05800
Br310      Br  0.10453107  0.55500430  0.94037193    -0.00200
Br311      Br  0.21959246  0.46262651  0.16296904     0.00300
Br312      Br  0.11950925  0.36974514  0.02457521    -0.04100
Br313      Br  0.19206505  0.43901804  0.88143249     0.00400
Br314      Br  0.11893126  0.50832461  0.04241642    -0.03400
Br315      Br  0.21269927  0.49281070  0.05519796    -0.04300
Br316      Br  0.12810587  0.33448172  0.13120175    -0.00300
C317        C  0.15778844  0.52511353  0.63053742     0.01100
C318        C  0.17949001  0.51130158  0.60658023     0.03900
C319        C  0.17430161  0.49477743  0.56230793    -0.12100
C320        C  0.14754736  0.49229017  0.54153916     0.23200
C321        C  0.12600955  0.50774376  0.56459579    -0.12700
C322        C  0.13105393  0.52412205  0.60880581     0.04700
C323        C  0.14199890  0.47238001  0.49573039     0.27100
C324        C  0.13994705  0.50347821  0.45844963    -0.13400
C325        C  0.13539516  0.48463998  0.41497541     0.05200
C326        C  0.13427642  0.43380472  0.40814900    -0.09300
C327        C  0.13508537  0.40286858  0.44628632     0.06000
C328        C  0.13866677  0.42238102  0.48965633    -0.13700
Br329      Br  0.08941999  0.50481472  0.53575955    -0.05800
Br330      Br  0.21626823  0.51116085  0.63491215    -0.00200
Br331      Br  0.12961433  0.53002466  0.36557935     0.00300
Br332      Br  0.13976471  0.38057775  0.54153043    -0.04100
Br333      Br  0.10097888  0.54537014  0.63912285     0.00400
Br334      Br  0.20370481  0.47338890  0.53035058    -0.03400
Br335      Br  0.14414280  0.57216992  0.46745869    -0.04300
Br336      Br  0.13266876  0.33346363  0.44120045    -0.00300
C337        C  0.17121467  0.73027232  0.72769616     0.01100
C338        C  0.18677602  0.73286486  0.69107144     0.03900
C339        C  0.20244249  0.77383747  0.68478469    -0.12100
C340        C  0.20145505  0.81357047  0.71333395     0.23200
C341        C  0.18219912  0.81460513  0.74426375    -0.12700
C342        C  0.16659259  0.77331626  0.75083502     0.04700
C343        C  0.22205865  0.85218129  0.71328155     0.27100
C344        C  0.24654750  0.84760513  0.74153953    -0.13400
C345        C  0.26601651  0.88424756  0.74271609     0.05200
C346        C  0.26120536  0.92574398  0.71529750    -0.09300
C347        C  0.23687756  0.92975965  0.68621696     0.06000
C348        C  0.21745561  0.89294903  0.68513756    -0.13700
Br349      Br  0.17903050  0.87137165  0.78009295    -0.05800
Br350      Br  0.18764020  0.67928468  0.65040005    -0.00200
Br351      Br  0.29847655  0.87853658  0.78413932     0.00300
Br352      Br  0.18454224  0.89786830  0.64492490    -0.04100
Br353      Br  0.14016396  0.77575829  0.79292266     0.00400
Br354      Br  0.22712907  0.77398959  0.63973654    -0.03400
Br355      Br  0.25337456  0.79087416  0.77888350    -0.04300
Br356      Br  0.23027314  0.98500378  0.64676339    -0.00300
C357        C  0.31056320  0.22731447  0.74948859     0.01100
C358        C  0.30111746  0.23438418  0.79156360     0.03900
C359        C  0.28666621  0.27674900  0.79989838    -0.12100
C360        C  0.28289220  0.31354689  0.76727944     0.23200
C361        C  0.29531454  0.30936128  0.72767340    -0.12700
C362        C  0.30877211  0.26608968  0.71835104     0.04700
C363        C  0.26325972  0.35364384  0.77202022     0.27100
C364        C  0.23619399  0.34870717  0.75362712    -0.13400
C365        C  0.21760552  0.38716445  0.75485261     0.05200
C366        C  0.22571707  0.43092177  0.77625388    -0.09300
C367        C  0.25292491  0.43518414  0.79585165     0.06000
C368        C  0.27151303  0.39663860  0.79366398    -0.13700
Br369      Br  0.29174222  0.36169219  0.68461651    -0.05800
Br370      Br  0.30676728  0.18472427  0.83714972    -0.00200
Br371      Br  0.18186352  0.38009355  0.72305242     0.00300
Br372      Br  0.30845831  0.40225278  0.82025598    -0.04100
Br373      Br  0.32148366  0.25856090  0.66056557     0.00400
Br374      Br  0.26971367  0.28257613  0.85414183    -0.03400
Br375      Br  0.22457073  0.28871777  0.72639694    -0.04300
Br376      Br  0.26546491  0.49318762  0.82613338    -0.00300
C377        C  0.92263983  0.35361912  0.22312540     0.01100
C378        C  0.93686899  0.33096421  0.19074519     0.03900
C379        C  0.96537509  0.32979305  0.19594216    -0.12100
C380        C  0.97989189  0.35259138  0.23261954     0.23200
C381        C  0.96576123  0.37496246  0.26506952    -0.12700
C382        C  0.93727032  0.37469622  0.26075264     0.04700
C383        C  0.01002763  0.35275853  0.23727199     0.27100
C384        C  0.02480473  0.31777963  0.26427088    -0.13400
C385        C  0.05328057  0.31918193  0.27072712     0.05200
C386        C  0.06740032  0.35493213  0.24884031    -0.09300
C387        C  0.05237399  0.38924686  0.22071596     0.06000
C388        C  0.02385001  0.38822443  0.21525016    -0.13700
Br389      Br  0.98555363  0.40672524  0.31509004    -0.05800
Br390      Br  0.91757812  0.30423474  0.13755327    -0.00200
Br391      Br  0.07221442  0.27423851  0.31299522     0.00300
Br392      Br  0.00342453  0.43574309  0.17781453    -0.04100
Br393      Br  0.91833110  0.40129846  0.30747888     0.00400
Br394      Br  0.98478150  0.29743105  0.15260102    -0.03400
Br395      Br  0.00567562  0.26813576  0.29286109    -0.04300
Br396      Br  0.07050626  0.43749710  0.18865643    -0.00300
C397        C  0.56522912  0.07361118  0.75365226     0.01100
C398        C  0.55073216  0.10619180  0.72338793     0.03900
C399        C  0.52228478  0.10355841  0.71523336    -0.12100
C400        C  0.50794925  0.07112423  0.73994036     0.23200
C401        C  0.52235637  0.03972480  0.77131308    -0.12700
C402        C  0.55085042  0.03968841  0.77693762     0.04700
C403        C  0.47776618  0.06982522  0.73304940     0.27100
C404        C  0.46223024  0.10525507  0.75239881    -0.13400
C405        C  0.43371413  0.10384882  0.74604956     0.05200
C406        C  0.42050548  0.06580409  0.72186482    -0.09300
C407        C  0.43611673  0.03018117  0.70267244     0.06000
C408        C  0.46457615  0.03257820  0.70778841    -0.13700
Br409      Br  0.50287430  0.99768455  0.80757512    -0.05800
Br410      Br  0.56975087  0.15418842  0.69280859    -0.00200
Br411      Br  0.41280779  0.15354759  0.77134172     0.00300
Br412      Br  0.48565622  0.98514868  0.67963962    -0.04100
Br413      Br  0.56998076  0.99379958  0.81787926     0.00400
Br414      Br  0.50284973  0.14348964  0.66943878    -0.03400
Br415      Br  0.48016449  0.15508219  0.78857666    -0.04300
Br416      Br  0.41860219  0.97909832  0.66731280    -0.00300
C417        C  0.77531460  0.29049771  0.08132897     0.01100
C418        C  0.79081658  0.25494222  0.06132260     0.03900
C419        C  0.77965393  0.23028860  0.02346338    -0.12100
C420        C  0.75305985  0.24059257  0.00520842     0.23200
C421        C  0.73728144  0.27503916  0.02529950    -0.12700
C422        C  0.74837686  0.29995903  0.06354287     0.04700
C423        C  0.74156592  0.21317783  0.96592415     0.27100
C424        C  0.74720204  0.22681936  0.92287846    -0.13400
C425        C  0.73661006  0.19987175  0.88577603     0.05200
C426        C  0.72025730  0.15972592  0.89152196    -0.09300
C427        C  0.71554391  0.14517645  0.93482620     0.06000
C428        C  0.72649047  0.17148079  0.97204854    -0.13700
Br429      Br  0.70052483  0.28774288  0.00017925    -0.05800
Br430      Br  0.82685546  0.23605651  0.08717538    -0.00200
Br431      Br  0.74278347  0.21961898  0.82676865     0.00300
Br432      Br  0.72108196  0.15078875  0.03161748    -0.04100
Br433      Br  0.72702663  0.34766029  0.09054916     0.00400
Br434      Br  0.80056887  0.18112911  0.99689892    -0.03400
Br435      Br  0.76909785  0.28272785  0.91499810    -0.04300
Br436      Br  0.69379157  0.08956775  0.94293192    -0.00300
C437        C  0.42531213  0.85435266  0.23570560     0.01100
C438        C  0.43897368  0.87873641  0.27242399     0.03900
C439        C  0.46750065  0.88100376  0.27763597    -0.12100
C440        C  0.48262242  0.85860989  0.24642997     0.23200
C441        C  0.46908528  0.83278388  0.21070873    -0.12700
C442        C  0.44060938  0.83092561  0.20510699     0.04700
C443        C  0.51276152  0.86196787  0.25113673     0.27100
C444        C  0.52552148  0.89672295  0.22646115    -0.13400
C445        C  0.55402689  0.89954327  0.23050377     0.05200
C446        C  0.57009749  0.86808975  0.26008683    -0.09300
C447        C  0.55706698  0.83358390  0.28518844     0.06000
C448        C  0.52865019  0.83001469  0.27993671    -0.13700
Br449      Br  0.48978555  0.80010302  0.16923397    -0.05800
Br450      Br  0.41870326  0.90734286  0.31664438    -0.00200
Br451      Br  0.57075686  0.94550282  0.19399973     0.00300
Br452      Br  0.51122424  0.78104674  0.31219908    -0.04100
Br453      Br  0.42278040  0.79848388  0.15362267     0.00400
Br454      Br  0.48604608  0.91488811  0.32750740    -0.03400
Br455      Br  0.50367354  0.94047354  0.18697347    -0.04300
Br456      Br  0.57754207  0.79308581  0.32973938    -0.00300
C457        C  0.76130596  0.49699359  0.21446461     0.01100
C458        C  0.74678607  0.51814178  0.17616097     0.03900
C459        C  0.72891879  0.55745160  0.18047269    -0.12100
C460        C  0.72525773  0.57555832  0.22305163     0.23200
C461        C  0.73817952  0.55212889  0.26139139    -0.12700
C462        C  0.75620755  0.51324010  0.25715118     0.04700
C463        C  0.71178652  0.62351534  0.22739232     0.27100
C464        C  0.72746472  0.66542409  0.22672147    -0.13400
C465        C  0.71585851  0.71122557  0.23257531     0.05200
C466        C  0.68800907  0.71586519  0.23865495    -0.09300
C467        C  0.67221842  0.67369975  0.23846948     0.06000
C468        C  0.68415789  0.62767358  0.23342597    -0.13700
Br469      Br  0.73172783  0.57457511  0.31983751    -0.05800
Br470      Br  0.75252121  0.49506422  0.11773056    -0.00200
Br471      Br  0.73946982  0.76650447  0.23517294     0.00300
Br472      Br  0.66300630  0.57006702  0.23603302    -0.04100
Br473      Br  0.77353752  0.48215206  0.31031730     0.00400
Br474      Br  0.71015630  0.58813335  0.12814896    -0.03400
Br475      Br  0.76551576  0.65945099  0.21941599    -0.04300
Br476      Br  0.63400427  0.67906366  0.24318822    -0.00300
C477        C  0.73501965  0.99757530  0.28905919     0.01100
C478        C  0.73004358  0.04410738  0.30575836     0.03900
C479        C  0.74840978  0.08187127  0.30129627    -0.12100
C480        C  0.77227581  0.07337761  0.28126038     0.23200
C481        C  0.77862361  0.02612747  0.26862999    -0.12700
C482        C  0.76015549  0.98830913  0.27234671     0.04700
C483        C  0.78707192  0.11528021  0.26469732     0.27100
C484        C  0.77789253  0.13451527  0.22240915    -0.13400
C485        C  0.78782787  0.17865115  0.20841492     0.05200
C486        C  0.80861953  0.20284158  0.23497264    -0.09300
C487        C  0.81907582  0.18195449  0.27634219     0.06000
C488        C  0.80818167  0.13842772  0.29135344    -0.13700
Br489      Br  0.81168181  0.01465084  0.24225298    -0.05800
Br490      Br  0.69824719  0.05650699  0.33535388    -0.00200
Br491      Br  0.76944477  0.20815493  0.15584371     0.00300
Br492      Br  0.82140430  0.11117461  0.34869560    -0.04100
Br493      Br  0.76888299  0.92527595  0.25034231     0.00400
Br494      Br  0.73989930  0.14660135  0.31916318    -0.03400
Br495      Br  0.75026107  0.10140605  0.18433072    -0.04300
Br496      Br  0.84746146  0.21426977  0.31305238    -0.00300
C497        C  0.64238523  0.00671921  0.91016296     0.01100
C498        C  0.62290699  0.01905443  0.93897576     0.03900
C499        C  0.62538361  0.00063543  0.98293937    -0.12100
C500        C  0.64735996  0.97016295  0.99831504     0.23200
C501        C  0.66621506  0.95632205  0.96928919    -0.12700
C502        C  0.66387359  0.97453818  0.92540754     0.04700
C503        C  0.65240936  0.95627306  0.04605875     0.27100
C504        C  0.67085697  0.98311939  0.07468309    -0.13400
C505        C  0.67711063  0.96897518  0.11943205     0.05200
C506        C  0.66491055  0.92798297  0.13571000    -0.09300
C507        C  0.64633646  0.90114383  0.10735885     0.06000
C508        C  0.64009069  0.91524544  0.06243860    -0.13700
Br509      Br  0.69619991  0.91426773  0.99091983    -0.05800
Br510      Br  0.59278250  0.06112100  0.91864722    -0.00200
Br511      Br  0.70120951  0.00715009  0.15920571     0.00300
Br512      Br  0.61450264  0.87899960  0.02353533    -0.04100
Br513      Br  0.69215533  0.95902711  0.88860809     0.00400
Br514      Br  0.59920610  0.01820343  0.02276767    -0.03400
Br515      Br  0.68719015  0.03985747  0.05276503    -0.04300
Br516      Br  0.62957074  0.84512475  0.13043098    -0.00300
C517        C  0.66101877  0.04610260  0.62716116     0.01100
C518        C  0.63413376  0.04136509  0.60690901     0.03900
C519        C  0.62909148  0.02541283  0.56272785    -0.12100
C520        C  0.65078386  0.01654145  0.53777596     0.23200
C521        C  0.67743392  0.02631653  0.55605912    -0.12700
C522        C  0.68269032  0.04033765  0.60096529     0.04700
C523        C  0.64584554  0.99247418  0.49405759     0.31900
C524        C  0.64937296  0.94205597  0.49180778    -0.13400
C525        C  0.64657545  0.91893221  0.45022644     0.05200
C526        C  0.63953209  0.94623192  0.41066033    -0.09300
C527        C  0.63360954  0.99617421  0.41370256     0.06000
C528        C  0.63757053  0.01944334  0.45514751    -0.13700
Br529      Br  0.70672710  0.01791980  0.51979567    -0.05800
Br530      Br  0.60390621  0.05714966  0.63916276    -0.00200
Br531      Br  0.65421760  0.85058726  0.44860267     0.00300
Br532      Br  0.63273131  0.08853032  0.45863015    -0.04100
Br533      Br  0.71972856  0.04721587  0.62675306     0.00400
Br534      Br  0.59255283  0.01282150  0.53705328    -0.03400
Br535      Br  0.65898462  0.90502145  0.54604888    -0.04300
Br536      Br  0.61904515  0.03273032  0.36142587    -0.00300
C537        C  0.92018804  0.58228541  0.72307842     0.01100
C538        C  0.93338766  0.62376025  0.74166833     0.03900
C539        C  0.96195292  0.62535037  0.74811000    -0.12100
C540        C  0.97755085  0.58556803  0.73615663     0.23200
C541        C  0.96443071  0.54510024  0.71614375    -0.12700
C542        C  0.93601331  0.54328047  0.70984949     0.04700
C543        C  0.00764283  0.58448890  0.74642424     0.27100
C544        C  0.02430589  0.60933189  0.71915405    -0.13400
C545        C  0.05273788  0.60662591  0.72865570     0.05200
C546        C  0.06470313  0.57523521  0.76259244    -0.09300
C547        C  0.04799530  0.54950790  0.78908450     0.06000
C548        C  0.01968236  0.55550826  0.78210921    -0.13700
Br549      Br  0.98569517  0.49241503  0.69611400    -0.05800
Br550      Br  0.91253092  0.67798463  0.75982808    -0.00200
Br551      Br  0.07519718  0.64630275  0.69550938     0.00300
Br552      Br  0.99718583  0.52383777  0.82141572    -0.04100
Br553      Br  0.91916214  0.48806168  0.68021778     0.00400
Br554      Br  0.97977474  0.68220109  0.77296762    -0.03400
Br555      Br  0.00817212  0.64496631  0.66750500    -0.04300
Br556      Br  0.06394493  0.50650840  0.83562933    -0.00300
C557        C  0.71416908  0.77075768  0.38722476     0.01100
C558        C  0.74206806  0.76681819  0.40146994     0.03900
C559        C  0.75104332  0.73706272  0.43841464    -0.12100
C560        C  0.73211120  0.71333846  0.46212962     0.23200
C561        C  0.70457370  0.71462808  0.44628323    -0.12700
C562        C  0.69569323  0.74165307  0.40794364     0.04700
C563        C  0.74065716  0.69164657  0.50631403     0.27100
C564        C  0.74621503  0.64175184  0.51087098    -0.13400
C565        C  0.75569024  0.62234529  0.55301862     0.05200
C566        C  0.76005789  0.65310879  0.59004864    -0.09300
C567        C  0.75261398  0.70220359  0.58597429     0.06000
C568        C  0.74263787  0.72145129  0.54417202    -0.13700
Br569      Br  0.67883780  0.68165372  0.47897844    -0.05800
Br570      Br  0.76778267  0.80455787  0.37318519    -0.00200
Br571      Br  0.76373653  0.55419560  0.56001660     0.00300
Br572      Br  0.73238930  0.78893980  0.53838783    -0.04100
Br573      Br  0.65797814  0.73733927  0.38420801     0.00400
Br574      Br  0.78911018  0.72990986  0.45797639    -0.03400
Br575      Br  0.74173604  0.60080029  0.45916838    -0.04300
Br576      Br  0.75749743  0.74341794  0.63738591    -0.00300
C577        C  0.84303760  0.50563020  0.56924420     0.01100
C578        C  0.83251130  0.53012647  0.52930179     0.03900
C579        C  0.82704211  0.50430895  0.48944738    -0.12100
C580        C  0.83563113  0.45588035  0.48696132     0.23200
C581        C  0.84816423  0.43217844  0.52521023    -0.12700
C582        C  0.85084891  0.45597961  0.56661477     0.04700
C583        C  0.83521772  0.43364257  0.44234378     0.27100
C584        C  0.81556537  0.39962290  0.42685748    -0.13400
C585        C  0.81289022  0.38550134  0.38165832     0.05200
C586        C  0.82851444  0.40842780  0.35113774    -0.09300
C587        C  0.84773219  0.44364104  0.36746537     0.06000
C588        C  0.85261180  0.45240455  0.41322171    -0.13700
Br589      Br  0.86266227  0.36758038  0.52008572    -0.05800
Br590      Br  0.82636122  0.59939577  0.52621894    -0.00200
Br591      Br  0.78746028  0.33545721  0.36269407     0.00300
Br592      Br  0.88250213  0.49261941  0.43626245    -0.04100
Br593      Br  0.86663628  0.41948537  0.61818764     0.00400
Br594      Br  0.80811704  0.53559614  0.43713470    -0.03400
Br595      Br  0.79211380  0.37320611  0.46749891    -0.04300
Br596      Br  0.86453921  0.48724146  0.32844264    -0.00300
C597        C  0.84986691  0.44812812  0.07512164     0.01100
C598        C  0.84587586  0.49889117  0.06874799     0.03900
C599        C  0.84124532  0.51874066  0.02538890    -0.12100
C600        C  0.84214719  0.48910327  0.98805592     0.23200
C601        C  0.84781028  0.43950035  0.99366667    -0.12700
C602        C  0.85137449  0.41870712  0.03673915     0.04700
C603        C  0.83656244  0.50986173  0.94251874     0.27100
C604        C  0.80984570  0.51158483  0.92143375    -0.13400
C605        C  0.80469345  0.52728625  0.87680824     0.05200
C606        C  0.82632025  0.54191756  0.85344853    -0.09300
C607        C  0.85287708  0.54253119  0.87540555     0.06000
C608        C  0.85801496  0.52602515  0.91974827    -0.13700
Br609      Br  0.84966159  0.39986508  0.94140331    -0.05800
Br610      Br  0.84778655  0.54324806  0.11827249    -0.00200
Br611      Br  0.76831261  0.52457989  0.84692634     0.00300
Br612      Br  0.89454980  0.52357214  0.94883017    -0.04100
Br613      Br  0.85702308  0.34943014  0.04054388     0.00400
Br614      Br  0.83265049  0.58665269  0.01638944    -0.03400
Br615      Br  0.78052563  0.49030042  0.95335330    -0.04300
Br616      Br  0.88224888  0.56619637  0.84472545    -0.00300
C617        C  0.81540900  0.74827987  0.74734784     0.01100
C618        C  0.81495367  0.78877026  0.71832618     0.03900
C619        C  0.80233291  0.83228004  0.72948602    -0.12100
C620        C  0.79065363  0.83582563  0.76987766     0.23200
C621        C  0.79474104  0.79801701  0.80153191    -0.12700
C622        C  0.80743685  0.75462529  0.79052625     0.04700
C623        C  0.77016937  0.87458305  0.77504320     0.27100
C624        C  0.77740265  0.91922645  0.79481073    -0.13400
C625        C  0.75760981  0.95594958  0.79720077     0.05200
C626        C  0.73071685  0.94937193  0.77705439    -0.09300
C627        C  0.72374734  0.90419391  0.75723671     0.06000
C628        C  0.74311103  0.86670626  0.75793798    -0.13700
Br629      Br  0.78045734  0.80401459  0.85812154    -0.05800
Br630      Br  0.82921660  0.78402432  0.66155712    -0.00200
Br631      Br  0.76745262  0.01395081  0.83010966     0.00300
Br632      Br  0.73262561  0.80394548  0.73479692    -0.04100
Br633      Br  0.81327680  0.70304919  0.83415188     0.00400
Br634      Br  0.79843980  0.88562204  0.68758084    -0.03400
Br635      Br  0.81456891  0.92997167  0.81782356    -0.04300
Br636      Br  0.68847782  0.89356967  0.72506052    -0.00300
C637        C  0.75823017  0.44940122  0.70925099     0.01100
C638        C  0.73140808  0.45464099  0.68820163     0.03900
C639        C  0.71233742  0.41771979  0.69200326    -0.12100
C640        C  0.72029804  0.37398392  0.71413058     0.23200
C641        C  0.74747652  0.36755416  0.73216927    -0.12700
C642        C  0.76597536  0.40555554  0.73178812     0.04700
C643        C  0.70046458  0.33449484  0.71903929     0.27100
C644        C  0.68915596  0.32847982  0.75959987    -0.13400
C645        C  0.67518721  0.28577934  0.76807351     0.05200
C646        C  0.67195253  0.24908577  0.73557972    -0.09300
C647        C  0.68056969  0.25788480  0.69313129     0.06000
C648        C  0.69508627  0.30003156  0.68511327    -0.13700
Br649      Br  0.75989740  0.30584142  0.75612814    -0.05800
Br650      Br  0.72091276  0.51095967  0.65200925    -0.00200
Br651      Br  0.66363437  0.27529853  0.82636967     0.00300
Br652      Br  0.70957054  0.30887075  0.62892873    -0.04100
Br653      Br  0.80120117  0.39784467  0.76574510     0.00400
Br654      Br  0.67524875  0.42674542  0.66699453    -0.03400
Br655      Br  0.69450364  0.37756438  0.80472991    -0.04300
Br656      Br  0.67364519  0.21061788  0.64662634    -0.00300
loop_ 
_geom_bond_atom_site_label_1 
_geom_bond_atom_site_label_2 
_geom_bond_distance 
_geom_bond_site_symmetry_2 
_ccdc_geom_bond_type 
Fe1          O17   2.083       .  S
Fe1           O7   2.055       .  S
Fe1          O14   2.048       .  S
Fe1           O6   2.065       .  S
Fe1          O12   1.967       .  S
Fe2           O5   2.086       .  S
Fe2           O9   2.057       .  S
Fe2          O13   2.080       .  S
Fe2          O18   2.048       .  S
Fe2          O12   1.979       .  S
Fe3          O21   2.058       .  S
Fe3           O8   2.069       .  S
Fe3          O15   2.070       .  S
Fe3           O4   2.064       .  S
Fe3          O12   1.980       .  S
O4           C11   1.263       .  A
O5           C19   1.271       .  A
O6           C11   1.265       .  A
O7           C10   1.272       .  A
O8           C20   1.270       .  A
O9           C22   1.265       .  A
C10          O15   1.274       .  A
C10         C606   1.471       .  S
C11         C637   1.493       .  S
O13          C16   1.273       .  A
O14          C16   1.263       .  A
C16         C577   1.498       .  S
O17          C22   1.271       .  A
O18          C20   1.267       .  A
C19          O21   1.267       .  A
C19         C617   1.491       .  S
C20         C566   1.461       .  S
C22         C537   1.492       .  S
Fe23         O39   2.034       .  S
Fe23         O29   2.111       .  S
Fe23         O36   2.119       .  S
Fe23         O28   2.027       .  S
Fe23         O34   1.919       .  S
Fe24         O27   2.019       .  S
Fe24         O31   2.107       .  S
Fe24         O35   2.052       .  S
Fe24         O40   2.128       .  S
Fe24         O34   1.916       .  S
Fe25         O43   2.124       .  S
Fe25         O30   2.045       .  S
Fe25         O37   2.060       .  S
Fe25         O26   2.105       .  S
Fe25         O34   1.929       .  S
O26          C33   1.280       .  A
O27          C41   1.257       .  A
O28          C33   1.267       .  A
O29          C32   1.278       .  A
O30          C42   1.263       .  A
O31          C44   1.276       .  A
C32          O37   1.267       .  A
C32         C477   1.498       .  S
C33         C506   1.463       .  S
O35          C38   1.270       .  A
O36          C38   1.281       .  A
C38         C446   1.496       .  S
O39          C44   1.266       .  A
O40          C42   1.279       .  A
C41          O43   1.277       .  A
C41         C557   1.477       .  S
C42         C466   1.496       .  S
C44         C526   1.481       .  S
Fe45         O61   2.072       .  S
Fe45         O51   2.060       .  S
Fe45         O58   2.047       .  S
Fe45         O50   2.064   1_545  S
Fe45         O56   1.972       .  S
Fe46         O49   2.098       .  S
Fe46         O53   2.073       .  S
Fe46         O57   2.085       .  S
Fe46         O62   2.045       .  S
Fe46         O56   1.977       .  S
Fe47         O65   2.046       .  S
Fe47         O52   2.080       .  S
Fe47         O59   2.080       .  S
Fe47         O48   2.066       .  S
Fe47         O56   1.977       .  S
O48          C55   1.263   1_545  A
O49          C63   1.275       .  A
O50          C55   1.263       .  A
O51          C54   1.275       .  A
O52          C64   1.275       .  A
O53          C66   1.268       .  A
C54          O59   1.277       .  A
C54         C517   1.481       .  S
C55         C626   1.498       .  S
O57          C60   1.275       .  A
O58          C60   1.267       .  A
C60         C497   1.481       .  S
O61          C66   1.268       .  A
O62          C64   1.266       .  A
C63          O65   1.263       .  A
C63         C646   1.490       .  S
C64         C426   1.471       .  S
C66         C397   1.488       .  S
Fe67         O83   2.054       .  S
Fe67         O73   2.107       .  S
Fe67         O80   2.105       .  S
Fe67         O72   2.029       .  S
Fe67         O78   1.912       .  S
Fe68         O71   2.016       .  S
Fe68         O75   2.103       .  S
Fe68         O79   2.054       .  S
Fe68         O84   2.130       .  S
Fe68         O78   1.920       .  S
Fe69         O87   2.124       .  S
Fe69         O74   2.051       .  S
Fe69         O81   2.063       .  S
Fe69         O70   2.120       .  S
Fe69         O78   1.933       .  S
O70          C77   1.285       .  A
O71          C85   1.257       .  A
O72          C77   1.266       .  A
O73          C76   1.274       .  A
O74          C86   1.266       .  A
O75          C88   1.274       .  A
C76          O81   1.266       .  A
C76         C457   1.489       .  S
C77         C586   1.491       .  S
O79          C82   1.269       .  A
O80          C82   1.276       .  A
C82         C377   1.485       .  S
O83          C88   1.270       .  A
O84          C86   1.281       .  A
C85          O87   1.283       .  A
C85         C417   1.477       .  S
C86         C486   1.491       .  S
C88         C597   1.501       .  S
Fe89        O105   2.084       .  S
Fe89         O95   2.057       .  S
Fe89        O102   2.056       .  S
Fe89         O94   2.071       .  S
Fe89        O100   1.974       .  S
Fe90         O93   2.103       .  S
Fe90         O97   2.061       .  S
Fe90        O101   2.098       .  S
Fe90        O106   2.037       .  S
Fe90        O100   1.977       .  S
Fe91        O109   2.037       .  S
Fe91         O96   2.102       .  S
Fe91        O103   2.097       .  S
Fe91         O92   2.047       .  S
Fe91        O100   1.974       .  S
O92          C99   1.260       .  A
O93         C107   1.276       .  A
O94          C99   1.267       .  A
O95          C98   1.273       .  A
O96         C108   1.275       .  A
O97         C110   1.263       .  A
C98         O103   1.280       .  A
C98         C317   1.489       .  S
C99         C366   1.494       .  S
O101        C104   1.279       .  A
O102        C104   1.270       .  A
C104        C297   1.491       .  S
O105        C110   1.269       .  A
O106        C108   1.263       .  A
C107        O109   1.264       .  A
C107        C337   1.496       .  S
C108        C277   1.482       .  S
C110        C546   1.486       .  S
Fe111       O127   2.048       .  S
Fe111       O117   2.097       .  S
Fe111       O124   2.100       .  S
Fe111       O116   2.042       .  S
Fe111       O122   1.952       .  S
Fe112       O115   2.041       .  S
Fe112       O119   2.111       .  S
Fe112       O123   2.058       .  S
Fe112       O128   2.092       .  S
Fe112       O122   1.950       .  S
Fe113       O131   2.092       .  S
Fe113       O118   2.052       .  S
Fe113       O125   2.067       .  S
Fe113       O114   2.100       .  S
Fe113       O122   1.956       .  S
O114        C121   1.280       .  A
O115        C129   1.269       .  A
O116        C121   1.271       .  A
O117        C120   1.272       .  A
O118        C130   1.267       .  A
O119        C132   1.280       .  A
C120        O125   1.264       .  A
C120        C217   1.500       .  S
C121        C237   1.466       .  S
O123        C126   1.265       .  A
O124        C126   1.272       .  A
C126        C437   1.490       .  S
O127        C132   1.269       .  A
O128        C130   1.274       .  A
C129        O131   1.275       .  A
C129        C286   1.481       .  S
C130        C206   1.493       .  S
C132        C257   1.503       .  S
Fe133       O149   2.044       .  S
Fe133       O139   2.082       .  S
Fe133       O146   2.098       .  S
Fe133       O138   2.033       .  S
Fe133       O144   1.937       .  S
Fe134       O137   2.015       .  S
Fe134       O141   2.127       .  S
Fe134       O145   2.058       .  S
Fe134       O150   2.129       .  S
Fe134       O144   1.921       .  S
Fe135       O153   2.113       .  S
Fe135       O140   2.053       .  S
Fe135       O147   2.067       .  S
Fe135       O136   2.131       .  S
Fe135       O144   1.927       .  S
O136        C143   1.290       .  A
O137        C151   1.258       .  A
O138        C143   1.276       .  A
O139        C142   1.263       .  A
O140        C152   1.268       .  A
O141        C154   1.283       .  A
C142        O147   1.261       .  A
C142        C197   1.503       .  S
C143        C306   1.478       .  S
O145        C148   1.264       .  A
O146        C148   1.270       .  A
C148        C386   1.494       .  S
O149        C154   1.273       .  A
O150        C152   1.283       .  A
C151        O153   1.280       .  A
C151        C186   1.481       .  S
C152        C226   1.497       .  S
C154        C326   1.503       .  S
Fe155       O171   2.069   1_565  S
Fe155       O161   2.064   1_565  S
Fe155       O168   2.058       .  S
Fe155       O160   2.073       .  S
Fe155       O166   1.976   1_565  S
Fe156       O159   2.086       .  S
Fe156       O163   2.071       .  S
Fe156       O167   2.067       .  S
Fe156       O172   2.053       .  S
Fe156       O166   1.976       .  S
Fe157       O175   2.046       .  S
Fe157       O162   2.070       .  S
Fe157       O169   2.077       .  S
Fe157       O158   2.048       .  S
Fe157       O166   1.978       .  S
O158        C165   1.260   1_545  A
O159        C173   1.272       .  A
O160        C165   1.266       .  A
O161        C164   1.273       .  A
O162        C174   1.270       .  A
O163        C176   1.267       .  A
C164        O169   1.275       .  A
C164        C266   1.472       .  S
C165        C346   1.484       .  S
O167        C170   1.272       .  A
O168        C170   1.270   1_565  A
C170        C246   1.478   1_545  S
O171        C176   1.267       .  A
O172        C174   1.267       .  A
C173        O175   1.265       .  A
C173        C357   1.487       .  S
C174        C177   1.471       .  S
C176        C406   1.487       .  S
C177        C178   1.406       .  A
C177        C182   1.407       .  A
C178        C179   1.407       .  A
C178       Br190   1.921       .  S
C179        C180   1.409       .  A
C179       Br194   1.929       .  S
C180        C183   1.478       .  S
C180        C181   1.408       .  A
C181        C182   1.403       .  A
C181       Br189   1.930       .  S
C182       Br193   1.924       .  S
C183        C184   1.401       .  A
C183        C188   1.412       .  A
C184        C185   1.400       .  A
C184       Br195   1.935       .  S
C185        C186   1.423       .  A
C185       Br191   1.937       .  S
C186        C187   1.408       .  A
C187        C188   1.411       .  A
C187       Br196   1.926       .  S
C188       Br192   1.928       .  S
C197        C198   1.426       .  A
C197        C202   1.424       .  A
C198        C199   1.412       .  A
C198       Br210   1.936       .  S
C199        C200   1.405       .  A
C199       Br214   1.931       .  S
C200        C203   1.491       .  S
C200        C201   1.407       .  A
C201        C202   1.409       .  A
C201       Br209   1.935       .  S
C202       Br213   1.936       .  S
C203        C204   1.407       .  A
C203        C208   1.409       .  A
C204        C205   1.409       .  A
C204       Br215   1.932       .  S
C205        C206   1.417       .  A
C205       Br211   1.927       .  S
C206        C207   1.419       .  A
C207        C208   1.411       .  A
C207       Br216   1.933       .  S
C208       Br212   1.932       .  S
C217        C218   1.413   1_565  A
C217        C222   1.420       .  A
C218        C219   1.412       .  A
C218       Br230   1.927       .  S
C219        C220   1.411       .  A
C219       Br234   1.929       .  S
C220        C223   1.501       .  S
C220        C221   1.410       .  A
C221        C222   1.416   1_545  A
C221       Br229   1.929       .  S
C222       Br233   1.932       .  S
C223        C224   1.407       .  A
C223        C228   1.414       .  A
C224        C225   1.408       .  A
C224       Br235   1.936       .  S
C225        C226   1.418       .  A
C225       Br231   1.922       .  S
C226        C227   1.411       .  A
C227        C228   1.420       .  A
C227       Br236   1.925       .  S
C228       Br232   1.924       .  S
C237        C238   1.409       .  A
C237        C242   1.408       .  A
C238        C239   1.406       .  A
C238       Br250   1.927       .  S
C239        C240   1.407       .  A
C239       Br254   1.929       .  S
C240        C243   1.476       .  S
C240        C241   1.407       .  A
C241        C242   1.402       .  A
C241       Br249   1.928   1_565  S
C242       Br253   1.927       .  S
C243        C244   1.405       .  A
C243        C248   1.407       .  A
C244        C245   1.404       .  A
C244       Br255   1.932       .  S
C245        C246   1.417       .  A
C245       Br251   1.932       .  S
C246        C247   1.413   1_565  A
C247        C248   1.405   1_545  A
C247       Br256   1.932       .  S
C248       Br252   1.931   1_565  S
C257        C258   1.422       .  A
C257        C262   1.423       .  A
C258        C259   1.411       .  A
C258       Br270   1.936       .  S
C259        C260   1.409   1_554  A
C259       Br274   1.934   1_554  S
C260        C263   1.488       .  S
C260        C261   1.405   1_566  A
C261        C262   1.408   1_545  A
C261       Br269   1.932       .  S
C262       Br273   1.934   1_565  S
C263        C264   1.412   1_565  A
C263        C268   1.411       .  A
C264        C265   1.409       .  A
C264       Br275   1.929       .  S
C265        C266   1.408       .  A
C265       Br271   1.928       .  S
C266        C267   1.407       .  A
C267        C268   1.405   1_545  A
C267       Br276   1.931   1_545  S
C268       Br272   1.928       .  S
C277        C278   1.411       .  A
C277        C282   1.411       .  A
C278        C279   1.399       .  A
C278       Br290   1.922       .  S
C279        C280   1.408       .  A
C279       Br294   1.936       .  S
C280        C283   1.489   1_556  S
C280        C281   1.414       .  A
C281        C282   1.414       .  A
C281       Br289   1.929   1_556  S
C282       Br293   1.922       .  S
C283        C284   1.411       .  A
C283        C288   1.415       .  A
C284        C285   1.400       .  A
C284       Br295   1.933   1_554  S
C285        C286   1.407       .  A
C285       Br291   1.926       .  S
C286        C287   1.413       .  A
C287        C288   1.412       .  A
C287       Br296   1.930       .  S
C288       Br292   1.931       .  S
C297        C298   1.412       .  A
C297        C302   1.422       .  A
C298        C299   1.411       .  A
C298       Br310   1.928       .  S
C299        C300   1.411   1_556  A
C299       Br314   1.930   1_556  S
C300        C303   1.488       .  S
C300        C301   1.404   1_554  A
C301        C302   1.408       .  A
C301       Br309   1.934       .  S
C302       Br313   1.929       .  S
C303        C304   1.411       .  A
C303        C308   1.409       .  A
C304        C305   1.409       .  A
C304       Br315   1.931       .  S
C305        C306   1.412       .  A
C305       Br311   1.931       .  S
C306        C307   1.412       .  A
C307        C308   1.407       .  A
C307       Br316   1.932       .  S
C308       Br312   1.930       .  S
C317        C318   1.416       .  A
C317        C322   1.417       .  A
C318        C319   1.411       .  A
C318       Br330   1.931       .  S
C319        C320   1.409       .  A
C319       Br334   1.930       .  S
C320        C323   1.489       .  S
C320        C321   1.406       .  A
C321        C322   1.407       .  A
C321       Br329   1.931       .  S
C322       Br333   1.928       .  S
C323        C324   1.404       .  A
C323        C328   1.406       .  A
C324        C325   1.410       .  A
C324       Br335   1.932       .  S
C325        C326   1.424       .  A
C325       Br331   1.935       .  S
C326        C327   1.425       .  A
C327        C328   1.412       .  A
C327       Br336   1.932       .  S
C328       Br332   1.933       .  S
C337        C338   1.420       .  A
C337        C342   1.414       .  A
C338        C339   1.407       .  A
C338       Br350   1.934       .  S
C339        C340   1.405       .  A
C339       Br354   1.931       .  S
C340        C343   1.489       .  S
C340        C341   1.410       .  A
C341        C342   1.414       .  A
C341       Br349   1.928       .  S
C342       Br353   1.928       .  S
C343        C344   1.411       .  A
C343        C348   1.408       .  A
C344        C345   1.408       .  A
C344       Br355   1.929       .  S
C345        C346   1.412       .  A
C345       Br351   1.932       .  S
C346        C347   1.416       .  A
C347        C348   1.410       .  A
C347       Br356   1.932       .  S
C348       Br352   1.929       .  S
C357        C358   1.415       .  A
C357        C362   1.416       .  A
C358        C359   1.408       .  A
C358       Br370   1.932       .  S
C359        C360   1.406       .  A
C359       Br374   1.929       .  S
C360        C363   1.489       .  S
C360        C361   1.410       .  A
C361        C362   1.411       .  A
C361       Br369   1.931       .  S
C362       Br373   1.931       .  S
C363        C364   1.407       .  A
C363        C368   1.404       .  A
C364        C365   1.406       .  A
C364       Br375   1.923       .  S
C365        C366   1.418       .  A
C365       Br371   1.937       .  S
C366        C367   1.422       .  A
C367        C368   1.411       .  A
C367       Br376   1.927       .  S
C368       Br372   1.930       .  S
C377        C378   1.415       .  A
C377        C382   1.411       .  A
C378        C379   1.410       .  A
C378       Br390   1.931       .  S
C379        C380   1.408       .  A
C379       Br394   1.930       .  S
C380        C383   1.491   1_655  S
C380        C381   1.410       .  A
C381        C382   1.410       .  A
C381       Br389   1.929       .  S
C382       Br393   1.927       .  S
C383        C384   1.407       .  A
C383        C388   1.409       .  A
C384        C385   1.410       .  A
C384       Br395   1.932       .  S
C385        C386   1.420       .  A
C385       Br391   1.934       .  S
C386        C387   1.418       .  A
C387        C388   1.412       .  A
C387       Br396   1.932       .  S
C388       Br392   1.931       .  S
C397        C398   1.411       .  A
C397        C402   1.415       .  A
C398        C399   1.413       .  A
C398       Br410   1.927       .  S
C399        C400   1.412       .  A
C399       Br414   1.928       .  S
C400        C403   1.494       .  S
C400        C401   1.409       .  A
C401        C402   1.409       .  A
C401       Br409   1.932   1_545  S
C402       Br413   1.931   1_545  S
C403        C404   1.412       .  A
C403        C408   1.410       .  A
C404        C405   1.412       .  A
C404       Br415   1.928       .  S
C405        C406   1.411       .  A
C405       Br411   1.928       .  S
C406        C407   1.415       .  A
C407        C408   1.410       .  A
C407       Br416   1.933   1_545  S
C408       Br412   1.931   1_545  S
C417        C418   1.423       .  A
C417        C422   1.408       .  A
C418        C419   1.398       .  A
C418       Br430   1.939       .  S
C419        C420   1.401       .  A
C419       Br434   1.936   1_554  S
C420        C423   1.475   1_554  S
C420        C421   1.411       .  A
C421        C422   1.410       .  A
C421       Br429   1.928       .  S
C422       Br433   1.927       .  S
C423        C424   1.408       .  A
C423        C428   1.405       .  A
C424        C425   1.405       .  A
C424       Br435   1.931       .  S
C425        C426   1.405       .  A
C425       Br431   1.915       .  S
C426        C427   1.409       .  A
C427        C428   1.403       .  A
C427       Br436   1.921       .  S
C428       Br432   1.929   1_556  S
C437        C438   1.413       .  A
C437        C442   1.417       .  A
C438        C439   1.413       .  A
C438       Br450   1.929       .  S
C439        C440   1.412       .  A
C439       Br454   1.929       .  S
C440        C443   1.495       .  S
C440        C441   1.408       .  A
C441        C442   1.410       .  A
C441       Br449   1.931       .  S
C442       Br453   1.932       .  S
C443        C444   1.411       .  A
C443        C448   1.407       .  A
C444        C445   1.414       .  A
C444       Br455   1.930       .  S
C445        C446   1.416       .  A
C445       Br451   1.931       .  S
C446        C447   1.420       .  A
C447        C448   1.410       .  A
C447       Br456   1.935       .  S
C448       Br452   1.931       .  S
C457        C458   1.411       .  A
C457        C462   1.415       .  A
C458        C459   1.414       .  A
C458       Br470   1.928       .  S
C459        C460   1.411       .  A
C459       Br474   1.927       .  S
C460        C463   1.494       .  S
C460        C461   1.408       .  A
C461        C462   1.409       .  A
C461       Br469   1.932       .  S
C462       Br473   1.925       .  S
C463        C464   1.406       .  A
C463        C468   1.411       .  A
C464        C465   1.408       .  A
C464       Br475   1.937       .  S
C465        C466   1.423       .  A
C465       Br471   1.936       .  S
C466        C467   1.414       .  A
C467        C468   1.416       .  A
C467       Br476   1.928       .  S
C468       Br472   1.926       .  S
C477        C478   1.415   1_565  A
C477        C482   1.422       .  A
C478        C479   1.411       .  A
C478       Br490   1.931       .  S
C479        C480   1.410       .  A
C479       Br494   1.931       .  S
C480        C483   1.493       .  S
C480        C481   1.407       .  A
C481        C482   1.413   1_545  A
C481       Br489   1.930       .  S
C482       Br493   1.933       .  S
C483        C484   1.404       .  A
C483        C488   1.412       .  A
C484        C485   1.402       .  A
C484       Br495   1.933       .  S
C485        C486   1.413       .  A
C485       Br491   1.912       .  S
C486        C487   1.413       .  A
C487        C488   1.418       .  A
C487       Br496   1.927       .  S
C488       Br492   1.925       .  S
C497        C498   1.413       .  A
C497        C502   1.418   1_545  A
C498        C499   1.408       .  A
C498       Br510   1.930       .  S
C499        C500   1.408   1_545  A
C499       Br514   1.929   1_556  S
C500        C503   1.480   1_556  S
C500        C501   1.405       .  A
C501        C502   1.404       .  A
C501       Br509   1.934       .  S
C502       Br513   1.934       .  S
C503        C504   1.409       .  A
C503        C508   1.408       .  A
C504        C505   1.402       .  A
C504       Br515   1.922   1_565  S
C505        C506   1.403       .  A
C505       Br511   1.928   1_565  S
C506        C507   1.409       .  A
C507        C508   1.406       .  A
C507       Br516   1.930       .  S
C508       Br512   1.927       .  S
C517        C518   1.415       .  A
C517        C522   1.415       .  A
C518        C519   1.403       .  A
C518       Br530   1.929       .  S
C519        C520   1.404       .  A
C519       Br534   1.932       .  S
C520        C523   1.478   1_545  S
C520        C521   1.408       .  A
C521        C522   1.408       .  A
C521       Br529   1.931       .  S
C522       Br533   1.931       .  S
C523        C524   1.407       .  A
C523        C528   1.405   1_565  A
C524        C525   1.405       .  A
C524       Br535   1.934       .  S
C525        C526   1.415       .  A
C525       Br531   1.927       .  S
C526        C527   1.416       .  A
C527        C528   1.405   1_565  A
C527       Br536   1.933   1_565  S
C528       Br532   1.929       .  S
C537        C538   1.417       .  A
C537        C542   1.415       .  A
C538        C539   1.415       .  A
C538       Br550   1.933       .  S
C539        C540   1.412       .  A
C539       Br554   1.929       .  S
C540        C543   1.495   1_655  S
C540        C541   1.408       .  A
C541        C542   1.408       .  A
C541       Br549   1.932       .  S
C542       Br553   1.928       .  S
C543        C544   1.412       .  A
C543        C548   1.411       .  A
C544        C545   1.413       .  A
C544       Br555   1.929       .  S
C545        C546   1.412       .  A
C545       Br551   1.927       .  S
C546        C547   1.411       .  A
C547        C548   1.409       .  A
C547       Br556   1.928       .  S
C548       Br552   1.931   1_455  S
C557        C558   1.410       .  A
C557        C562   1.422       .  A
C558        C559   1.409       .  A
C558       Br570   1.928       .  S
C559        C560   1.410       .  A
C559       Br574   1.928       .  S
C560        C563   1.473       .  S
C560        C561   1.400       .  A
C561        C562   1.398       .  A
C561       Br569   1.934       .  S
C562       Br573   1.938       .  S
C563        C564   1.408       .  A
C563        C568   1.408       .  A
C564        C565   1.405       .  A
C564       Br575   1.928       .  S
C565        C566   1.408       .  A
C565       Br571   1.929       .  S
C566        C567   1.405       .  A
C567        C568   1.401       .  A
C567       Br576   1.926       .  S
C568       Br572   1.932       .  S
C577        C578   1.422       .  A
C577        C582   1.429       .  A
C578        C579   1.404       .  A
C578       Br590   1.938       .  S
C579        C580   1.407       .  A
C579       Br594   1.937       .  S
C580        C583   1.481       .  S
C580        C581   1.403       .  A
C581        C582   1.409       .  A
C581       Br589   1.934       .  S
C582       Br593   1.934       .  S
C583        C584   1.409       .  A
C583        C588   1.401       .  A
C584        C585   1.413       .  A
C584       Br595   1.930       .  S
C585        C586   1.420       .  A
C585       Br591   1.933       .  S
C586        C587   1.424       .  A
C587        C588   1.397       .  A
C587       Br596   1.939       .  S
C588       Br592   1.937       .  S
C597        C598   1.425       .  A
C597        C602   1.428       .  A
C598        C599   1.408       .  A
C598       Br610   1.935       .  S
C599        C600   1.402   1_554  A
C599       Br614   1.933       .  S
C600        C603   1.480       .  S
C600        C601   1.403       .  A
C601        C602   1.408   1_556  A
C601       Br609   1.936       .  S
C602       Br613   1.935       .  S
C603        C604   1.408       .  A
C603        C608   1.408       .  A
C604        C605   1.406       .  A
C604       Br615   1.931       .  S
C605        C606   1.412       .  A
C605       Br611   1.933       .  S
C606        C607   1.411       .  A
C607        C608   1.404       .  A
C607       Br616   1.933       .  S
C608       Br612   1.929       .  S
C617        C618   1.415       .  A
C617        C622   1.414       .  A
C618        C619   1.412       .  A
C618       Br630   1.930       .  S
C619        C620   1.410       .  A
C619       Br634   1.929       .  S
C620        C623   1.493       .  S
C620        C621   1.408       .  A
C621        C622   1.410       .  A
C621       Br629   1.928       .  S
C622       Br633   1.931       .  S
C623        C624   1.408       .  A
C623        C628   1.407       .  A
C624        C625   1.416       .  A
C624       Br635   1.929       .  S
C625        C626   1.421       .  A
C625       Br631   1.932   1_565  S
C626        C627   1.419       .  A
C627        C628   1.407       .  A
C627       Br636   1.935       .  S
C628       Br632   1.932       .  S
C637        C638   1.418       .  A
C637        C642   1.414       .  A
C638        C639   1.415       .  A
C638       Br650   1.929       .  S
C639        C640   1.409       .  A
C639       Br654   1.927       .  S
C640        C643   1.498       .  S
C640        C641   1.409       .  A
C641        C642   1.406       .  A
C641       Br649   1.918       .  S
C642       Br653   1.938       .  S
C643        C644   1.412       .  A
C643        C648   1.409       .  A
C644        C645   1.414       .  A
C644       Br655   1.929       .  S
C645        C646   1.414       .  A
C645       Br651   1.930       .  S
C646        C647   1.415       .  A
C647        C648   1.412       .  A
C647       Br656   1.930       .  S
C648       Br652   1.929       .  S
