geometry optimzed in LAMMPS
_audit_creation_date              2020-12-01 
_audit_creation_method            'lammps2cif' 
_symmetry_space_group_name_H-M    'P1' 
_symmetry_Int_Tables_number       1 
_symmetry_cell_setting            triclinic 
loop_ 
_symmetry_equiv_pos_as_xyz 
  x,y,z 
_cell_length_a                    33.91343118 
_cell_length_b                    44.499737518838 
_cell_length_c                    41.67815995643262 
_cell_angle_alpha                 89.84777700872648 
_cell_angle_beta                  90.10248004623845 
_cell_angle_gamma                 89.81964721964081 
loop_ 
_atom_site_label 
_atom_site_type_symbol 
_atom_site_fract_x 
_atom_site_fract_y 
_atom_site_fract_z 
_atom_site_charge 
Fe1        Fe  0.66829813  0.21507462  0.62869596     1.65800
Fe2        Fe  0.65415309  0.14520308  0.59820301     1.73200
Fe3        Fe  0.74392057  0.16551693  0.62569153     1.54400
O4          O  0.76714901  0.20920236  0.62157130    -0.81600
O5          O  0.66667362  0.11380645  0.63353045    -0.79900
O6          O  0.71559178  0.23768190  0.61000369    -0.84100
O7          O  0.69602939  0.21312404  0.67485516    -0.79000
O8          O  0.75203208  0.15625695  0.57758318    -0.80800
O9          O  0.60308653  0.15756259  0.62173251    -0.83500
C10         C  0.72092412  0.19508284  0.68833495     0.97300
C11         C  0.75177644  0.23481252  0.61643611     1.04700
O12         O  0.68845573  0.17542027  0.61803837    -1.12500
O13         O  0.64180404  0.17399164  0.56043643    -0.74900
O14         O  0.64236052  0.21975670  0.58251054    -0.78400
O15         O  0.73727557  0.17340939  0.67359786    -0.79100
C16         C  0.63811889  0.20237336  0.55815072     0.96200
O17         O  0.61640763  0.19914698  0.64867498    -0.77100
O18         O  0.69877773  0.12778064  0.57114198    -0.82300
C19         C  0.70158739  0.10396153  0.63771507     0.98800
C20         C  0.73298943  0.13578113  0.56283242     1.04700
O21         O  0.73152893  0.12055441  0.63333547    -0.77900
C22         C  0.59283534  0.17837626  0.64060333     1.03000
Fe23       Fe  0.85721144  0.01374244  0.36367279     1.65800
Fe24       Fe  0.86890824  0.07827656  0.40579571     1.73200
Fe25       Fe  0.77756445  0.05521284  0.38318298     1.54400
O26         O  0.77733840  0.04658740  0.33439269    -0.81600
O27         O  0.83137658  0.08553077  0.44245446    -0.79900
O28         O  0.83633940  0.02830337  0.31845426    -0.84100
O29         O  0.80828916  0.98722906  0.36527073    -0.79000
O30         O  0.78406354  0.10043827  0.37470152    -0.80800
O31         O  0.89312994  0.04297729  0.43274952    -0.83500
C32         C  0.77451468  0.98780732  0.37755974     0.97300
C33         C  0.80102100  0.03768686  0.31255590     1.04700
O34         O  0.83443927  0.04953220  0.38380676    -1.12500
O35         O  0.91144955  0.07740917  0.37134441    -0.74900
O36         O  0.91330185  0.03042735  0.35549174    -0.78400
O37         O  0.76212794  0.01081769  0.39231519    -0.79100
C38         C  0.92898418  0.05599452  0.35772734     0.96200
O39         O  0.87320574  0.99979492  0.41026178    -0.77100
O40         O  0.84538007  0.11611345  0.38355906    -0.82300
C41         C  0.79606582  0.08010521  0.44954440     0.98800
C42         C  0.80946206  0.12135494  0.37671838     1.04700
O43         O  0.77330298  0.06479339  0.43167288    -0.77900
C44         C  0.88566085  0.01485195  0.43456892     1.03000
Fe45       Fe  0.35312864  0.23804968  0.64297840     1.65800
Fe46       Fe  0.36554734  0.17682101  0.59703966     1.73200
Fe47       Fe  0.27432042  0.19621368  0.62412751     1.54400
O48         O  0.27325157  0.20821006  0.67200050    -0.81600
O49         O  0.33044299  0.17717785  0.55730156    -0.79900
O50         O  0.33410138  0.22146045  0.68782485    -0.84100
O51         O  0.30253993  0.26331023  0.64192632    -0.79000
O52         O  0.28250296  0.15192231  0.63773989    -0.80800
O53         O  0.39547664  0.21327686  0.57711978    -0.83500
C54         C  0.27011954  0.26302601  0.62706074     0.97300
C55         C  0.29806155  0.21449789  0.69396519     1.04700
O56         O  0.33078115  0.20320632  0.62152329    -1.12500
O57         O  0.40515439  0.17273187  0.63422951    -0.74900
O58         O  0.40958836  0.22021146  0.64825958    -0.78400
O59         O  0.25938043  0.24015959  0.61106047    -0.79100
C60         C  0.42488490  0.19434070  0.64552634     0.96200
O61         O  0.36814560  0.25466719  0.59748021    -0.77100
O62         O  0.33765750  0.13788000  0.61254731    -0.82300
C63         C  0.29348984  0.17477125  0.55464312     0.98800
C64         C  0.30613430  0.13175733  0.62778162     1.04700
O65         O  0.26982981  0.18202906  0.57703305    -0.77900
C66         C  0.38518564  0.24079364  0.57443345     1.03000
Fe67       Fe  0.16779190  0.03680841  0.37366697     1.65800
Fe68       Fe  0.14916131  0.10462555  0.40747354     1.73200
Fe69       Fe  0.24131013  0.08716885  0.38378663     1.54400
O70         O  0.26473599  0.04346330  0.38352469    -0.81600
O71         O  0.16408616  0.13913080  0.37635187    -0.79900
O72         O  0.21392688  0.01425082  0.39362724    -0.84100
O73         O  0.19991242  0.04241471  0.33018207    -0.79000
O74         O  0.24527015  0.09124727  0.43300296    -0.80800
O75         O  0.10166979  0.09380244  0.37911992    -0.83500
C76         C  0.22613323  0.06075688  0.31930987     0.97300
C77         C  0.24965148  0.01758275  0.38652794     1.04700
O78         O  0.18566008  0.07617489  0.38753887    -1.12500
O79         O  0.13345650  0.07318653  0.44108074    -0.74900
O80         O  0.13802078  0.02825134  0.41776461    -0.78400
O81         O  0.23889733  0.08315072  0.33514302    -0.79100
C82         C  0.13086129  0.04474627  0.44232248     0.96200
O83         O  0.11757783  0.05299435  0.35156367    -0.77100
O84         O  0.19107937  0.11899589  0.43940384    -0.82300
C85         C  0.19865793  0.14988614  0.37760084     0.98800
C86         C  0.22482317  0.11028663  0.44873568     1.04700
O87         O  0.22872077  0.13305402  0.38146920    -0.77900
C88         C  0.09337963  0.07358757  0.35893557     1.03000
Fe89       Fe  0.15227025  0.48847124  0.64177344     1.65800
Fe90       Fe  0.14129669  0.42430313  0.59790158     1.73200
Fe91       Fe  0.23284189  0.44549053  0.62368084     1.54400
O92         O  0.25095381  0.49015127  0.61766478    -0.81600
O93         O  0.16230633  0.38663405  0.62057795    -0.79900
O94         O  0.19918878  0.51595252  0.63427763    -0.84100
O95         O  0.17718480  0.47713756  0.68692350    -0.79000
O96         O  0.23902180  0.43895304  0.57521556    -0.80800
O97         O  0.09481858  0.42492930  0.62948931    -0.83500
C98         C  0.20984555  0.46368219  0.69361224     0.97300
C99         C  0.23476947  0.51471088  0.62574040     1.04700
O100        O  0.17548508  0.45251931  0.62167497    -1.12500
O101        O  0.11879200  0.45907680  0.57081348    -0.74900
O102        O  0.13064058  0.50222416  0.59637095    -0.78400
O103        O  0.23159572  0.45137034  0.67246690    -0.79100
C104        C  0.12068524  0.48761549  0.57113176     0.96200
O105        O  0.09893833  0.46864630  0.65423055    -0.77100
O106        O  0.18186450  0.41754490  0.56272633    -0.82300
C107        C  0.19779787  0.37980686  0.62677489     0.98800
C108        C  0.21733454  0.42388411  0.55647407     1.04700
O109        O  0.22515438  0.39926953  0.62922857    -0.77900
C110        C  0.08057577  0.44459123  0.64788498     1.03000
Fe111      Fe  0.34330684  0.28569980  0.37633918     1.65800
Fe112      Fe  0.35779763  0.35346091  0.41240105     1.73200
Fe113      Fe  0.26888847  0.33715662  0.38048133     1.54400
O114        O  0.27812109  0.33093222  0.33249822    -0.81600
O115        O  0.31280797  0.36732454  0.44143415    -0.79900
O116        O  0.31352688  0.28846178  0.33080100    -0.84100
O117        O  0.29573488  0.26378681  0.39552858    -0.79000
O118        O  0.28207795  0.38273361  0.37644574    -0.80800
O119        O  0.37078572  0.32174757  0.44609119    -0.83500
C120        C  0.25937033  0.26813831  0.39079150     0.97300
C121        C  0.28928498  0.30732297  0.31786726     1.04700
O122        O  0.32366033  0.32546902  0.38930336    -1.12500
O123        O  0.40754167  0.34265705  0.38661967    -0.74900
O124        O  0.39534101  0.30252306  0.35653312    -0.78400
O125        O  0.24558373  0.29371385  0.38304526    -0.79100
C126        C  0.41838871  0.32315234  0.36626364     0.96200
O127        O  0.37139135  0.27759694  0.42125777    -0.77100
O128        O  0.34659887  0.38930382  0.38245566    -0.82300
C129        C  0.27690952  0.36116640  0.44677679     0.98800
C130        C  0.31224257  0.39963859  0.37753198     1.04700
O131        O  0.25659633  0.34451021  0.42835506    -0.77900
C132        C  0.37609520  0.29359132  0.44648553     1.03000
Fe133      Fe  0.83694546  0.46852980  0.62834529     1.65800
Fe134      Fe  0.85623720  0.39956113  0.59761559     1.73200
Fe135      Fe  0.76542225  0.41602089  0.62525067     1.54400
O136        O  0.77422104  0.42215605  0.67296127    -0.81600
O137        O  0.81216386  0.38331841  0.56907993    -0.79900
O138        O  0.80627653  0.46617936  0.67338322    -0.84100
O139        O  0.78890130  0.48702774  0.60609636    -0.79000
O140        O  0.77942992  0.37073014  0.62999286    -0.80800
O141        O  0.86851382  0.42951506  0.56127797    -0.83500
C142        C  0.75401032  0.48464023  0.61603012     0.97300
C143        C  0.78375825  0.44650246  0.68681679     1.04700
O144        O  0.82017460  0.42796787  0.61772627    -1.12500
O145        O  0.90535749  0.41328019  0.62368799    -0.74900
O146        O  0.88890187  0.45484635  0.65029036    -0.78400
O147        O  0.74010257  0.45928444  0.62389623    -0.79100
C148        C  0.91382128  0.43470864  0.64266112     0.96200
O149        O  0.86571302  0.47483118  0.58373374    -0.77100
O150        O  0.84453172  0.36547054  0.63033721    -0.82300
C151        C  0.77707447  0.39019294  0.56119010     0.98800
C152        C  0.81007456  0.35447773  0.63311232     1.04700
O153        O  0.75615129  0.40879544  0.57701662    -0.77900
C154        C  0.87145144  0.45786411  0.55937165     1.03000
Fe155      Fe  0.65523867  0.26807948  0.36347189     1.65800
Fe156      Fe  0.64774994  0.32502725  0.41557705     1.73200
Fe157      Fe  0.73632164  0.30716037  0.38221445     1.54400
O158        O  0.75014467  0.26238856  0.39326960    -0.81600
O159        O  0.67822741  0.36430790  0.40531489    -0.79900
O160        O  0.70414002  0.24113670  0.36338280    -0.84100
O161        O  0.67390378  0.28540692  0.31883680    -0.79000
O162        O  0.74392125  0.31949429  0.42939641    -0.80800
O163        O  0.60645194  0.33529343  0.38062568    -0.83500
C164        C  0.71001633  0.29136923  0.31211513     0.97300
C165        C  0.73580638  0.23948114  0.37926002     1.04700
O166        O  0.67976407  0.30090473  0.38629606    -1.12500
O167        O  0.61432438  0.28894595  0.43132998    -0.74900
O168        O  0.64075536  0.24909819  0.40831358    -0.78400
O169        O  0.73555506  0.29688021  0.33373896    -0.79100
C170        C  0.62496029  0.26163649  0.43272787     0.96200
O171        O  0.60101620  0.28979023  0.35971536    -0.77100
O172        O  0.68529632  0.31605574  0.45253466    -0.82300
C173        C  0.70702109  0.37160764  0.38744122     0.98800
C174        C  0.72163634  0.32215939  0.45359890     1.04700
O175        O  0.72718220  0.35228907  0.37177452    -0.77900
C176        C  0.58681656  0.31576044  0.36529420     1.03000
Fe177      Fe  0.85256244  0.23194711  0.86572076     1.65800
Fe178      Fe  0.86626446  0.16792247  0.90999780     1.73200
Fe179      Fe  0.77444100  0.18731267  0.88398647     1.54400
O180        O  0.75335898  0.23145879  0.88812576    -0.81600
O181        O  0.85024476  0.13134349  0.88317386    -0.79900
O182        O  0.80565445  0.25894727  0.87646205    -0.84100
O183        O  0.82498085  0.22201662  0.82096227    -0.79000
O184        O  0.76962530  0.18248273  0.93290289    -0.80800
O185        O  0.91493775  0.17329240  0.88190065    -0.83500
C186        C  0.79402515  0.20661367  0.81404251     0.97300
C187        C  0.76929596  0.25665662  0.88245871     1.04700
O188        O  0.83120485  0.19569456  0.88594105    -1.12500
O189        O  0.88301826  0.20223993  0.93983740    -0.74900
O190        O  0.87754839  0.24437913  0.91054401    -0.78400
O191        O  0.77464995  0.19201846  0.83505233    -0.79100
C192        C  0.88472231  0.23063959  0.93718205     0.96200
O193        O  0.90473503  0.21225113  0.85002600    -0.77100
O194        O  0.82444132  0.15645271  0.94250456    -0.82300
C195        C  0.81496612  0.12320685  0.87808532     0.98800
C196        C  0.79020039  0.16486913  0.94999467     1.04700
O197        O  0.78581456  0.14141851  0.87908938    -0.77900
C198        C  0.92613325  0.19074894  0.85994473     1.03000
Fe199      Fe  0.66502946  0.03415129  0.13257940     1.65800
Fe200      Fe  0.65331446  0.10201155  0.09694218     1.73200
Fe201      Fe  0.74105678  0.08285460  0.12836342     1.54400
O202        O  0.73175979  0.07775657  0.17635745    -0.81600
O203        O  0.69940759  0.11737583  0.06967040    -0.79900
O204        O  0.69554821  0.03575663  0.17774639    -0.84100
O205        O  0.71093756  0.01199345  0.11209537    -0.79000
O206        O  0.72934658  0.12878057  0.13228437    -0.80800
O207        O  0.64272495  0.07092079  0.06158062    -0.83500
C208        C  0.74625162  0.01346626  0.12118983     0.97300
C209        C  0.72037380  0.05401963  0.19059843     1.04700
O210        O  0.68600622  0.07310250  0.11999899    -1.12500
O211        O  0.60207333  0.09070440  0.12086207    -0.74900
O212        O  0.61497750  0.05236683  0.15348895    -0.78400
O213        O  0.76229139  0.03844401  0.12776993    -0.79100
C214        C  0.59170315  0.07243041  0.14267384     0.96200
O215        O  0.63662703  0.02744895  0.08763869    -0.77100
O216        O  0.66442535  0.13570579  0.12968667    -0.82300
C217        C  0.73378424  0.10807921  0.06306734     0.98800
C218        C  0.69909483  0.14572155  0.13417489     1.04700
O219        O  0.75195432  0.08855549  0.07992328    -0.77900
C220        C  0.63614230  0.04283292  0.06156818     1.03000
Fe221      Fe  0.16499846  0.22487789  0.87443628     1.65800
Fe222      Fe  0.14790789  0.15661386  0.90943540     1.73200
Fe223      Fe  0.23981410  0.17547805  0.88502897     1.54400
O224        O  0.23792536  0.18170873  0.83645526    -0.81600
O225        O  0.18956504  0.14199159  0.94138677    -0.79900
O226        O  0.19749114  0.22137990  0.83059932    -0.84100
O227        O  0.21015346  0.24833941  0.89541912    -0.79000
O228        O  0.22786073  0.13024665  0.87905835    -0.80800
O229        O  0.13068922  0.18754661  0.94362213    -0.83500
C230        C  0.24698465  0.24469515  0.89362179     0.97300
C231        C  0.22417606  0.20336198  0.81982078     1.04700
O232        O  0.18392313  0.18563306  0.88904117    -1.12500
O233        O  0.10086732  0.16780085  0.88065018    -0.74900
O234        O  0.11534319  0.20825483  0.85172486    -0.78400
O235        O  0.26228044  0.21904862  0.88895914    -0.79100
C236        C  0.09180997  0.18754245  0.85986812     0.96200
O237        O  0.13398939  0.23158216  0.91789711    -0.77100
O238        O  0.16342758  0.12171753  0.87870124    -0.82300
C239        C  0.22359838  0.15034217  0.95002071     0.98800
C240        C  0.19876294  0.11258997  0.87533950     1.04700
O241        O  0.24453216  0.16856615  0.93381556    -0.77900
C242        C  0.12654860  0.21589838  0.94310427     1.03000
Fe243      Fe  0.35147064  0.02120374  0.14103007     1.65800
Fe244      Fe  0.36233281  0.08447158  0.09585966     1.73200
Fe245      Fe  0.27198164  0.06565668  0.12346985     1.54400
O246        O  0.25195067  0.02184941  0.12190043    -0.81600
O247        O  0.34591807  0.12164201  0.12247135    -0.79900
O248        O  0.30460255  0.99435996  0.13327867    -0.84100
O249        O  0.32572418  0.03314999  0.18571613    -0.79000
O250        O  0.26586649  0.06882208  0.07453246    -0.80800
O251        O  0.41160526  0.07956335  0.12357847    -0.83500
C252        C  0.29382089  0.04762127  0.19266217     0.97300
C253        C  0.26808403  0.99708997  0.12911535     1.04700
O254        O  0.32872557  0.05715067  0.12084880    -1.12500
O255        O  0.37845147  0.04945356  0.06645512    -0.74900
O256        O  0.37338993  0.00721822  0.09559280    -0.78400
O257        O  0.27348443  0.06209168  0.17215312    -0.79100
C258        C  0.37931336  0.02093171  0.06878968     0.96200
O259        O  0.40497828  0.03980768  0.15470071    -0.77100
O260        O  0.31993298  0.09469746  0.06314906    -0.82300
C261        C  0.31054375  0.12976934  0.12789061     0.98800
C262        C  0.28599233  0.08538391  0.05606239     1.04700
O263        O  0.28177116  0.11152187  0.12683312    -0.77900
C264        C  0.42502063  0.06170135  0.14448895     1.03000
Fe265      Fe  0.34190058  0.47606551  0.87356044     1.65800
Fe266      Fe  0.35629882  0.40833554  0.90901166     1.73200
Fe267      Fe  0.26695140  0.42669260  0.88049860     1.54400
O268        O  0.24547734  0.47099532  0.87791466    -0.81600
O269        O  0.34230738  0.37379694  0.87768243    -0.79900
O270        O  0.29577467  0.49890254  0.89278859    -0.84100
O271        O  0.31083527  0.47133719  0.82894299    -0.79000
O272        O  0.25778461  0.42369411  0.92933121    -0.80800
O273        O  0.40550834  0.41801118  0.88229179    -0.83500
C274        C  0.28783667  0.45127944  0.81671682     0.97300
C275        C  0.26068541  0.49649378  0.88341462     1.04700
O276        O  0.32218794  0.43716608  0.88737383    -1.12500
O277        O  0.37123675  0.43967469  0.94291960    -0.74900
O278        O  0.37112309  0.48425995  0.91834822    -0.78400
O279        O  0.27575256  0.42862609  0.83239420    -0.79100
C280        C  0.37584318  0.46796948  0.94360126     0.96200
O281        O  0.39177500  0.45829723  0.85268467    -0.77100
O282        O  0.31152900  0.39583638  0.93911286    -0.82300
C283        C  0.30753979  0.36342118  0.87786787     0.98800
C284        C  0.27761147  0.40559623  0.94689108     1.04700
O285        O  0.27777808  0.38067967  0.88036013    -0.77900
C286        C  0.41498135  0.43747237  0.86146809     1.03000
Fe287      Fe  0.15766395  0.27175052  0.13906897     1.65800
Fe288      Fe  0.14522461  0.33742225  0.09868876     1.73200
Fe289      Fe  0.23746276  0.31659141  0.12443313     1.54400
O290        O  0.23647010  0.30661142  0.17284584    -0.81600
O291        O  0.18611185  0.34806502  0.06536079    -0.79900
O292        O  0.17992835  0.28270681  0.18513086    -0.84100
O293        O  0.20686453  0.24620886  0.13240066    -0.79000
O294        O  0.22740494  0.36182307  0.13390041    -0.80800
O295        O  0.12551735  0.30348730  0.06870125    -0.83500
C296        C  0.24243765  0.24802921  0.12383697     0.97300
C297        C  0.21330091  0.29434956  0.19297966     1.04700
O298        O  0.18017983  0.30873865  0.12106755    -1.12500
O299        O  0.09760451  0.33381870  0.12866455    -0.74900
O300        O  0.10244731  0.28899216  0.15077811    -0.78400
O301        O  0.25732245  0.27279802  0.11494235    -0.79100
C302        C  0.08329270  0.31295618  0.14538985     0.96200
O303        O  0.13800809  0.25923380  0.09256187    -0.77100
O304        O  0.16412414  0.37363209  0.12488850    -0.82300
C305        C  0.22202037  0.34382866  0.05902641     0.98800
C306        C  0.19919838  0.38079087  0.13224852     1.04700
O307        O  0.24440047  0.32784531  0.07662347    -0.77900
C308        C  0.12795513  0.27488122  0.06787571     1.03000
Fe309      Fe  0.65349503  0.48357400  0.86410111     1.65800
Fe310      Fe  0.64423675  0.42000830  0.90880998     1.73200
Fe311      Fe  0.73479000  0.44063679  0.87986097     1.54400
O312        O  0.73162031  0.44643827  0.83096341    -0.81600
O313        O  0.68607216  0.41380412  0.94294841    -0.79900
O314        O  0.67520708  0.47088785  0.81853177    -0.84100
O315        O  0.70091497  0.51072677  0.86904611    -0.79000
O316        O  0.72679245  0.39454350  0.87452057    -0.80800
O317        O  0.62331904  0.45547131  0.93659166    -0.83500
C318        C  0.73694938  0.50964031  0.87599710     0.97300
C319        C  0.70809296  0.45840052  0.81076475     1.04700
O320        O  0.67752837  0.44782963  0.88376276    -1.12500
O321        O  0.59598854  0.42062063  0.87857867    -0.74900
O322        O  0.59964202  0.46439530  0.85390084    -0.78400
O323        O  0.75340648  0.48523745  0.88444702    -0.79100
C324        C  0.58124583  0.44052572  0.86053178     0.96200
O325        O  0.63466401  0.49824510  0.90997047    -0.77100
O326        O  0.66457457  0.38193690  0.88541947    -0.82300
C327        C  0.72145941  0.42070516  0.94855413     0.98800
C328        C  0.69955742  0.37504584  0.87715108     1.04700
O329        O  0.74284865  0.43461921  0.92850473    -0.77900
C330        C  0.62541697  0.48411425  0.93576906     1.03000
Fe331      Fe  0.83997992  0.28202031  0.12928932     1.65800
Fe332      Fe  0.85805092  0.35080540  0.09667910     1.73200
Fe333      Fe  0.76726319  0.33379589  0.12403955     1.54400
O334        O  0.74249156  0.29053540  0.12221663    -0.81600
O335        O  0.84645511  0.38505802  0.12871674    -0.79900
O336        O  0.79247585  0.26173149  0.10818810    -0.84100
O337        O  0.80923744  0.28471595  0.17428600    -0.79000
O338        O  0.75937243  0.34129661  0.07561542    -0.80800
O339        O  0.90683403  0.33750181  0.12273587    -0.83500
C340        C  0.78494389  0.30369300  0.18690739     0.97300
C341        C  0.75690556  0.26483229  0.11623539     1.04700
O342        O  0.82227435  0.32226988  0.11744953    -1.12500
O343        O  0.87014485  0.32067718  0.06084607    -0.74900
O344        O  0.86845433  0.27569805  0.08450179    -0.78400
O345        O  0.77372601  0.32734413  0.17220666    -0.79100
C346        C  0.87354678  0.29235733  0.05966757     0.96200
O347        O  0.89179187  0.29661301  0.15091358    -0.77100
O348        O  0.81463675  0.36746861  0.06800668    -0.82300
C349        C  0.81171985  0.39551111  0.13149033     0.98800
C350        C  0.77986065  0.36039387  0.06009720     1.04700
O351        O  0.78148191  0.37882713  0.12885419    -0.77900
C352        C  0.91595410  0.31698383  0.14266345     1.03000
C353        C  0.79068308  0.38640140  0.00894681    -0.12200
C354        C  0.76396362  0.37650879  0.03233445     0.04800
C355        C  0.72427279  0.38521089  0.03032428    -0.07500
C356        C  0.71152499  0.40185668  0.00383334    -0.08300
C357        C  0.73788765  0.40972570  0.97903280    -0.02800
C358        C  0.77809301  0.40233411  0.98216880     0.04000
N359        N  0.80614231  0.40869602  0.95753660     0.66500
H360        H  0.82175276  0.38113234  0.01103665     0.15400
H361        H  0.68062109  0.40798625  0.00226623     0.15100
N362        N  0.69712628  0.37836968  0.05548646     0.74200
O363        O  0.83083888  0.42945271  0.96184817    -0.39200
O364        O  0.81298727  0.38902210  0.93649500    -0.39200
O365        O  0.69931879  0.39220162  0.08182988    -0.39900
O366        O  0.67518583  0.35563193  0.05317525    -0.39900
C367        C  0.01953425  0.28894461  0.16053173    -0.12200
C368        C  0.04123810  0.31544160  0.15571865     0.04800
C369        C  0.02040201  0.34307447  0.15472915    -0.07500
C370        C  0.97910742  0.34318314  0.15393648    -0.08300
C371        C  0.95751105  0.31631540  0.15435172    -0.02800
C372        C  0.97812049  0.28908980  0.15983657     0.04000
N373        N  0.95796691  0.26098345  0.16112709     0.66500
H374        H  0.03467593  0.26743034  0.16193778     0.15400
H375        H  0.96386592  0.36452749  0.15089816     0.15100
N376        N  0.04050029  0.37121993  0.15306264     0.74200
O377        O  0.95639866  0.24484966  0.13630487    -0.39200
O378        O  0.95052324  0.24938278  0.18809130    -0.39200
O379        O  0.04231752  0.38491670  0.12655333    -0.39900
O380        O  0.04649112  0.38562664  0.17863937    -0.39900
C381        C  0.47750134  0.41017154  0.85079727    -0.12200
C382        C  0.45612970  0.43719902  0.84972657     0.04800
C383        C  0.47662452  0.46429747  0.84431878    -0.07500
C384        C  0.51788800  0.46428151  0.84433427    -0.08300
C385        C  0.53947699  0.43768336  0.84986212    -0.02800
C386        C  0.51879478  0.41012433  0.85080621     0.04000
N387        N  0.53891937  0.38195264  0.85310198     0.66500
H388        H  0.46212729  0.38904697  0.85392062     0.15400
H389        H  0.53285545  0.48571604  0.84306880     0.15100
N390        N  0.45634987  0.49251097  0.84330463     0.74200
O391        O  0.53936533  0.36823884  0.87964130    -0.39200
O392        O  0.54535880  0.36734660  0.82772461    -0.39200
O393        O  0.45018145  0.50677977  0.86895309    -0.39900
O394        O  0.44049370  0.50131154  0.81751523    -0.39900
C395        C  0.28896661  0.38368627  0.00026335    -0.12200
C396        C  0.26173702  0.39337972  0.97689657     0.04800
C397        C  0.22154513  0.38696021  0.98098800    -0.07500
C398        C  0.20965340  0.37081148  0.00789089    -0.08300
C399        C  0.23710563  0.35951493  0.03035968    -0.02800
C400        C  0.27719999  0.36660084  0.02655255     0.04000
N401        N  0.30620197  0.35776151  0.04962212     0.66500
H402        H  0.32010384  0.38879094  0.99771550     0.15400
H403        H  0.17837766  0.36693977  0.01096892     0.15100
N404        N  0.19271769  0.39494811  0.95738363     0.74200
O405        O  0.32740660  0.33499494  0.04418400    -0.39200
O406        O  0.31682121  0.37629966  0.07077754    -0.39200
O407        O  0.18192599  0.37545860  0.93727706    -0.39900
O408        O  0.17115662  0.41767624  0.96203148    -0.39900
C409        C  0.39939186  0.01923797  0.01055132    -0.12200
C410        C  0.38463012  0.00394364  0.03780338     0.04800
C411        C  0.37239507  0.47661406  0.03478966    -0.07500
C412        C  0.37067229  0.46500266  0.00346477    -0.08300
C413        C  0.38360279  0.48135757  0.97635284    -0.02800
C414        C  0.39731898  0.00693364  0.97938308     0.04000
N415        N  0.41202836  0.02415425  0.95302345     0.66500
H416        H  0.41126567  0.04172675  0.01316431     0.15400
H417        H  0.35718776  0.44309720  0.00035250     0.15100
N418        N  0.35601568  0.45913157  0.06024639     0.74200
O419        O  0.38878482  0.04099202  0.93752158    -0.39200
O420        O  0.45495549  0.52533864  0.95212110    -0.39200
O421        O  0.31510366  0.95956526  0.06271551    -0.39900
O422        O  0.37715885  0.43942910  0.07375675    -0.39900
C423        C  0.21467141  0.46272861  0.11150535    -0.12200
C424        C  0.24466485  0.47008022  0.13306549     0.04800
C425        C  0.25423483  0.44968243  0.15809114    -0.07500
C426        C  0.23739688  0.42110137  0.15867060    -0.08300
C427        C  0.20921742  0.41287615  0.13580911    -0.02800
C428        C  0.19661647  0.43445167  0.11284152     0.04000
N429        N  0.16794537  0.42723859  0.08897038     0.66500
H430        H  0.20658922  0.47833735  0.09255136     0.15400
H431        H  0.24685650  0.40505573  0.17677233     0.15100
N432        N  0.28084681  0.45789265  0.18326562     0.74200
O433        O  0.13282465  0.43592654  0.09280241    -0.39200
O434        O  0.17934737  0.41970441  0.06133054    -0.39200
O435        O  0.31505006  0.44668043  0.18434934    -0.39900
O436        O  0.27117594  0.47804791  0.20301815    -0.39900
C437        C  0.31657969  0.18349414  0.11146630    -0.12200
C438        C  0.30082763  0.16191660  0.13254335     0.04800
C439        C  0.27007135  0.17052207  0.15324707    -0.07500
C440        C  0.25330477  0.19902931  0.15040512    -0.08300
C441        C  0.26619876  0.21986526  0.12721671    -0.02800
C442        C  0.29979578  0.21243090  0.10878689     0.04000
N443        N  0.31614152  0.23314505  0.08629602     0.66500
H444        H  0.34048739  0.17726625  0.09545576     0.15400
H445        H  0.22901128  0.20460470  0.16630930     0.15100
N446        N  0.25499685  0.15043319  0.17707091     0.74200
O447        O  0.34486458  0.24920508  0.09488364    -0.39200
O448        O  0.30974941  0.22934769  0.05675154    -0.39200
O449        O  0.26551611  0.15381957  0.20589261    -0.39900
O450        O  0.22425586  0.13554002  0.17108582    -0.39900
C451        C  0.20064364  0.02693407  0.88305926    -0.12200
C452        C  0.24079562  0.02167531  0.87726653     0.04800
C453        C  0.26364613  0.04519604  0.86405842    -0.07500
C454        C  0.24736581  0.07372563  0.86015082    -0.08300
C455        C  0.20863296  0.08025350  0.86971488    -0.02800
C456        C  0.18434957  0.05598241  0.87943690     0.04000
N457        N  0.14372964  0.06047493  0.88690556     0.66500
H458        H  0.18221167  0.00875318  0.89192660     0.15400
H459        H  0.26643137  0.09153753  0.85130100     0.15100
N460        N  0.30394186  0.04075246  0.85501948     0.74200
O461        O  0.11815522  0.05504438  0.86568664    -0.39200
O462        O  0.13330276  0.06185953  0.91590690    -0.39200
O463        O  0.29386729  0.54497211  0.81168333    -0.39900
O464        O  0.33093419  0.04763770  0.87452614    -0.39900
C465        C  0.27962376  0.32375402  0.91115802    -0.12200
C466        C  0.30033281  0.33100710  0.88316472     0.04800
C467        C  0.30946905  0.30791340  0.86124929    -0.07500
C468        C  0.29556760  0.27852475  0.86707263    -0.08300
C469        C  0.27177451  0.27208799  0.89392890    -0.02800
C470        C  0.26490877  0.29500188  0.91647493     0.04000
N471        N  0.24014786  0.29028320  0.94361786     0.66500
H472        H  0.27259179  0.34119861  0.92844840     0.15400
H473        H  0.30025099  0.26136988  0.84897197     0.15100
N474        N  0.32871229  0.31438704  0.83158659     0.74200
O475        O  0.25591056  0.28615611  0.97072316    -0.39200
O476        O  0.20497617  0.29948439  0.94224268    -0.39200
O477        O  0.36447922  0.30721722  0.82817843    -0.39900
O478        O  0.30804025  0.31968745  0.80699295    -0.39900
C479        C  0.12988433  0.26134436  0.97720091    -0.12200
C480        C  0.11728398  0.23170073  0.97411174     0.04800
C481        C  0.10272368  0.21711680  0.00209428    -0.07500
C482        C  0.10613469  0.23101932  0.03261011    -0.08300
C483        C  0.12160410  0.26018926  0.03568282    -0.02800
C484        C  0.13210305  0.27545828  0.00705241     0.04000
N485        N  0.14952200  0.30443511  0.00778990     0.66500
H486        H  0.14048485  0.27335337  0.95644139     0.15400
H487        H  0.09574208  0.21932135  0.05372207     0.15100
N488        N  0.08059807  0.18994983  0.99958484     0.74200
O489        O  0.18649996  0.30596849  0.01011349    -0.39200
O490        O  0.13060800  0.32636449  0.99614024    -0.39200
O491        O  0.04513212  0.19160284  0.99055438    -0.39900
O492        O  0.09178545  0.16691705  0.01474873    -0.39900
C493        C  0.27765307  0.12275142  0.97580303    -0.12200
C494        C  0.24009405  0.13552792  0.97830809     0.04800
C495        C  0.21636551  0.12879026  0.00513953    -0.07500
C496        C  0.23075925  0.11011317  0.02927916    -0.08300
C497        C  0.26844151  0.09770701  0.02696682    -0.02800
C498        C  0.29170032  0.10349996  0.99965753     0.04000
N499        N  0.32837413  0.08834430  0.99485540     0.66500
H500        H  0.29523855  0.12635890  0.95445345     0.15400
H501        H  0.21306646  0.10643805  0.05056123     0.15100
N502        N  0.17781514  0.14114220  0.00860570     0.74200
O503        O  0.32821619  0.06290113  0.98158348    -0.39200
O504        O  0.36015149  0.10294372  0.99634370    -0.39200
O505        O  0.14852304  0.12448612  0.00318454    -0.39900
O506        O  0.17340584  0.16431818  0.02562587    -0.39900
C507        C  0.68681409  0.19770094  0.11452853    -0.12200
C508        C  0.70587879  0.17855636  0.13664415     0.04800
C509        C  0.73766687  0.19002268  0.15467637    -0.07500
C510        C  0.75161460  0.21896578  0.14851175    -0.08300
C511        C  0.73507495  0.23704458  0.12433504    -0.02800
C512        C  0.70135559  0.22668980  0.10796922     0.04000
N513        N  0.68419642  0.24367616  0.08240251     0.66500
H514        H  0.66279401  0.18910070  0.09995622     0.15400
H515        H  0.77710081  0.22690502  0.16185581     0.15100
N516        N  0.75744820  0.17209167  0.17826140     0.74200
O517        O  0.69528848  0.23861972  0.05403832    -0.39200
O518        O  0.65166305  0.25680110  0.08695776    -0.39200
O519        O  0.79023671  0.16027545  0.17141088    -0.39900
O520        O  0.74796391  0.17492630  0.20736086    -0.39900
C521        C  0.80463809  0.47877482  0.11171372    -0.12200
C522        C  0.76860062  0.48535097  0.12654497     0.04800
C523        C  0.75220569  0.46407189  0.14785788    -0.07500
C524        C  0.77010905  0.43617470  0.15210980    -0.08300
C525        C  0.80389835  0.42814619  0.13494025    -0.02800
C526        C  0.82222527  0.45020295  0.11540981     0.04000
N527        N  0.85648595  0.44326031  0.09698731     0.66500
H528        H  0.81789032  0.49512696  0.09564792     0.15400
H529        H  0.75569468  0.41973619  0.16742370     0.15100
N530        N  0.70739699  0.96548955  0.15515663     0.74200
O531        O  0.85247673  0.43549036  0.06807014    -0.39200
O532        O  0.88960942  0.45250005  0.10655009    -0.39200
O533        O  0.67944451  0.95578426  0.13808335    -0.39900
O534        O  0.70146220  0.97015118  0.18455066    -0.39900
C535        C  0.62641301  0.04686969  0.00179306    -0.12200
C536        C  0.62925733  0.02829289  0.02928573     0.04800
C537        C  0.61583243  0.49638901  0.02659398    -0.07500
C538        C  0.61366472  0.48361270  0.99564939    -0.08300
C539        C  0.61985815  0.50059298  0.96736022    -0.02800
C540        C  0.62514142  0.03512196  0.97046201     0.04000
N541        N  0.62471533  0.05560363  0.94403623     0.66500
H542        H  0.62654994  0.07115454  0.00437388     0.15400
H543        H  0.60887926  0.45959667  0.99405146     0.15100
N544        N  0.61144628  0.47698161  0.05368827     0.74200
O545        O  0.59223571  0.06653706  0.93481901    -0.39200
O546        O  0.65632326  0.06854291  0.93613906    -0.39200
O547        O  0.57725225  0.46932072  0.06226965    -0.39900
O548        O  0.64063240  0.46156797  0.06296941    -0.39900
C549        C  0.53259907  0.04602474  0.16445779    -0.12200
C550        C  0.54977217  0.07282384  0.15329820     0.04800
C551        C  0.52480196  0.09770474  0.14715104    -0.07500
C552        C  0.48391737  0.09422971  0.14828769    -0.08300
C553        C  0.46665435  0.06623816  0.15484652    -0.02800
C554        C  0.49143901  0.04245085  0.16519469     0.04000
N555        N  0.47585662  0.01372670  0.17368236     0.66500
H556        H  0.55106595  0.02674181  0.16995753     0.15400
H557        H  0.46556075  0.11324154  0.14153775     0.15100
N558        N  0.54014163  0.12626809  0.13772888     0.74200
O559        O  0.47499773  0.99317647  0.15288906    -0.39200
O560        O  0.47291914  0.00682602  0.20296467    -0.39200
O561        O  0.53918665  0.13367855  0.10848230    -0.39900
O562        O  0.54415966  0.14645087  0.15867304    -0.39900
C563        C  0.87705916  0.27782385  0.96885452    -0.12200
C564        C  0.89106114  0.24821717  0.96749652     0.04800
C565        C  0.90374362  0.23462434  0.99672043    -0.07500
C566        C  0.89920015  0.24970760  0.02613618    -0.08300
C567        C  0.88244401  0.27847740  0.02764887    -0.02800
C568        C  0.87236619  0.29283238  0.99819892     0.04000
N569        N  0.85349060  0.32150297  0.99744188     0.66500
H570        H  0.86671561  0.28882717  0.94717371     0.15400
H571        H  0.90806794  0.23841723  0.04807190     0.15100
N572        N  0.92075925  0.20524452  0.99734871     0.74200
O573        O  0.87332774  0.34413816  0.98905911    -0.39200
O574        O  0.81640564  0.32245092  0.99510398    -0.39200
O575        O  0.95777073  0.20274819  0.99903538    -0.39900
O576        O  0.89960775  0.18326865  0.00559264    -0.39900
C577        C  0.75824946  0.30550231  0.85586466    -0.12200
C578        C  0.74565479  0.28485602  0.87926716     0.04800
C579        C  0.71248951  0.29245801  0.89809342    -0.07500
C580        C  0.69552058  0.32135917  0.89520333    -0.08300
C581        C  0.71065338  0.34281135  0.87353440    -0.02800
C582        C  0.74126229  0.33395552  0.85274865     0.04000
N583        N  0.75593074  0.35366098  0.82845114     0.66500
H584        H  0.78245407  0.29973719  0.83994946     0.15400
H585        H  0.67188741  0.32764462  0.91144231     0.15100
N586        N  0.69720671  0.27212318  0.92150092     0.74200
O587        O  0.78770502  0.36759967  0.83338262    -0.39200
O588        O  0.74388153  0.35047942  0.80000114    -0.39200
O589        O  0.70615713  0.27576015  0.95063072    -0.39900
O590        O  0.66751939  0.25641048  0.91449044    -0.39900
C591        C  0.79862941  0.04048652  0.89436621    -0.12200
C592        C  0.76754304  0.03479715  0.87272627     0.04800
C593        C  0.75979488  0.05643732  0.84835437    -0.07500
C594        C  0.77789860  0.08446766  0.84922504    -0.08300
C595        C  0.80585891  0.09122842  0.87258295    -0.02800
C596        C  0.81854007  0.06832455  0.89382839     0.04000
N597        N  0.85086212  0.07328473  0.91525140     0.66500
H598        H  0.80661598  0.02384383  0.91222774     0.15400
H599        H  0.76918689  0.10146864  0.83190309     0.15100
N600        N  0.73374690  0.05044820  0.82217145     0.74200
O601        O  0.84502310  0.08502798  0.94233758    -0.39200
O602        O  0.88569469  0.07029109  0.90512648    -0.39200
O603        O  0.69982094  0.06216612  0.82211435    -0.39900
O604        O  0.74826684  0.04164209  0.79597077    -0.39900
C605        C  0.02955859  0.16023374  0.85068685    -0.12200
C606        C  0.05072572  0.18708831  0.84742136     0.04800
C607        C  0.02969049  0.21367313  0.83962902    -0.07500
C608        C  0.98828648  0.21350238  0.83980321    -0.08300
C609        C  0.96730991  0.18749289  0.84825816    -0.02800
C610        C  0.98842406  0.16018422  0.85172444     0.04000
N611        N  0.96900354  0.13251002  0.85887913     0.66500
H612        H  0.04507686  0.13932079  0.85559227     0.15400
H613        H  0.97273304  0.23467079  0.83663352     0.15100
N614        N  0.04936862  0.24171093  0.83513407     0.74200
O615        O  0.96309694  0.11405469  0.83646651    -0.39200
O616        O  0.96870350  0.12314248  0.88749421    -0.39200
O617        O  0.05347719  0.25185984  0.80704422    -0.39900
O618        O  0.05294236  0.25934306  0.85862156    -0.39900
C619        C  0.75339569  0.15370526  0.03392780    -0.12200
C620        C  0.75232863  0.12206496  0.03529292     0.04800
C621        C  0.76258324  0.10511913  0.00818647    -0.07500
C622        C  0.77245298  0.11996015  0.97994649    -0.08300
C623        C  0.77392673  0.15136457  0.97870308    -0.02800
C624        C  0.76489826  0.16844912  0.00585735     0.04000
N625        N  0.76911347  0.20040768  0.00548554     0.66500
H626        H  0.74519920  0.16690833  0.05475832     0.15400
H627        H  0.77939644  0.10685048  0.95875312     0.15100
N628        N  0.76234489  0.07302063  0.00869534     0.74200
O629        O  0.74169011  0.21652503  0.99423331    -0.39200
O630        O  0.80277513  0.21175831  0.00973360    -0.39200
O631        O  0.73599046  0.05916813  0.99332765    -0.39900
O632        O  0.79342001  0.05922144  0.01668937    -0.39900
C633        C  0.76131149  0.27630191  0.27248446    -0.12200
C634        C  0.72531546  0.29120193  0.27857075     0.04800
C635        C  0.70855214  0.30857520  0.25383143    -0.07500
C636        C  0.72885852  0.31218666  0.22473768    -0.08300
C637        C  0.76562972  0.29813108  0.21881727    -0.02800
C638        C  0.78099893  0.27900334  0.24287963     0.04000
N639        N  0.81661759  0.26245284  0.23806028     0.66500
H640        H  0.77461402  0.26255906  0.29119993     0.15400
H641        H  0.71525212  0.32618900  0.20641335     0.15100
N642        N  0.67163132  0.32355006  0.25805808     0.74200
O643        O  0.84853534  0.27254654  0.24921399    -0.39200
O644        O  0.81452812  0.23507201  0.23045537    -0.39200
O645        O  0.67122974  0.35140466  0.26364270    -0.39900
O646        O  0.64062504  0.31108956  0.24800090    -0.39900
C647        C  0.72866900  0.43639669  0.72473811    -0.12200
C648        C  0.76411878  0.45200226  0.71843600     0.04800
C649        C  0.77788083  0.47231069  0.74184273    -0.07500
C650        C  0.75738733  0.47534823  0.77099961    -0.08300
C651        C  0.72269212  0.45907927  0.77732445    -0.02800
C652        C  0.70807104  0.43974765  0.75360375     0.04000
N653        N  0.67328342  0.42240478  0.75879765     0.66500
H654        H  0.71652240  0.42112125  0.70704550     0.15400
H655        H  0.76942850  0.48993466  0.78942386     0.15100
N656        N  0.81332523  0.48898218  0.73723611     0.74200
O657        O  0.64091295  0.43185714  0.74765381    -0.39200
O658        O  0.67661898  0.39501311  0.76626971    -0.39200
O659        O  0.81101898  0.51612263  0.72857500    -0.39900
O660        O  0.84497591  0.47942868  0.74960020    -0.39900
C661        C  0.78883579  0.36179450  0.51175882    -0.12200
C662        C  0.76139392  0.37410496  0.53328440     0.04800
C663        C  0.72119776  0.36737061  0.52954686    -0.07500
C664        C  0.70946853  0.34846877  0.50471683    -0.08300
C665        C  0.73692176  0.33657990  0.48278188    -0.02800
C666        C  0.77719675  0.34356430  0.48656385     0.04000
N667        N  0.80681377  0.33291264  0.46498589     0.66500
H668        H  0.82008760  0.36630245  0.51442809     0.15400
H669        H  0.67819460  0.34421724  0.50191429     0.15100
N670        N  0.69195887  0.37898218  0.55083254     0.74200
O671        O  0.81752311  0.34959557  0.44207934    -0.39200
O672        O  0.82916556  0.31173550  0.47386172    -0.39200
O673        O  0.66987770  0.40012304  0.54140344    -0.39900
O674        O  0.68184649  0.36355822  0.57487433    -0.39900
C675        C  0.25936022  0.27485858  0.23510902    -0.12200
C676        C  0.22776902  0.29396576  0.22668014     0.04800
C677        C  0.21696571  0.31673066  0.24817795    -0.07500
C678        C  0.23792947  0.32053437  0.27688854    -0.08300
C679        C  0.27011642  0.30187368  0.28561539    -0.02800
C680        C  0.28003771  0.27817620  0.26439109     0.04000
N681        N  0.31110906  0.25752063  0.27169353     0.66500
H682        H  0.26869333  0.25757393  0.21840003     0.15400
H683        H  0.22848363  0.33860860  0.29251998     0.15100
N684        N  0.18555389  0.33703547  0.24071675     0.74200
O685        O  0.30260016  0.23233608  0.28377921    -0.39200
O686        O  0.34429589  0.26095115  0.25856248    -0.39200
O687        O  0.15233900  0.33320276  0.25366368    -0.39900
O688        O  0.19338522  0.36206119  0.22797120    -0.39900
C689        C  0.48334238  0.34934854  0.36389876    -0.12200
C690        C  0.46072863  0.32382934  0.35623066     0.04800
C691        C  0.48077722  0.29815183  0.34466505    -0.07500
C692        C  0.52211626  0.29738144  0.34469011    -0.08300
C693        C  0.54465572  0.32150808  0.35646919    -0.02800
C694        C  0.52469467  0.34847336  0.36419518     0.04000
N695        N  0.54556839  0.37474892  0.37399358     0.66500
H696        H  0.46883499  0.36983791  0.37179151     0.15400
H697        H  0.53647282  0.27655785  0.33767582     0.15100
N698        N  0.46009509  0.27158075  0.33558333     0.74200
O699        O  0.55384488  0.39450658  0.35332664    -0.39200
O700        O  0.54688935  0.38146134  0.40337657    -0.39200
O701        O  0.45608081  0.26567193  0.30616706    -0.39900
O702        O  0.45556869  0.25086363  0.35597220    -0.39900
C703        C  0.24201241  0.43345088  0.73589296    -0.12200
C704        C  0.22519025  0.46111347  0.72697128     0.04800
C705        C  0.23070698  0.48602273  0.74748988    -0.07500
C706        C  0.25291617  0.48262721  0.77580538    -0.08300
C707        C  0.27051117  0.45514929  0.78421308    -0.02800
C708        C  0.26422131  0.43019364  0.76397136     0.04000
N709        N  0.28061747  0.40135296  0.77131492     0.66500
H710        H  0.23862923  0.41400431  0.72028706     0.15400
H711        H  0.25543018  0.50181841  0.79215060     0.15100
N712        N  0.21588381  0.51510143  0.73930398     0.74200
O713        O  0.25921008  0.38186469  0.78468991    -0.39200
O714        O  0.31166362  0.39304860  0.75719872    -0.39200
O715        O  0.18537038  0.52468155  0.75327692    -0.39900
O716        O  0.23895201  0.53376723  0.72646949    -0.39900
C717        C  0.01532579  0.46723837  0.65871297    -0.12200
C718        C  0.03879653  0.44124678  0.65830515     0.04800
C719        C  0.01982343  0.41299081  0.66008722    -0.07500
C720        C  0.97852913  0.41132273  0.65775998    -0.08300
C721        C  0.95538820  0.43735396  0.65402170    -0.02800
C722        C  0.97420833  0.46564556  0.65605324     0.04000
N723        N  0.95299093  0.49295282  0.65052784     0.66500
H724        H  0.02908936  0.48921988  0.65733197     0.15400
H725        H  0.96463652  0.38936549  0.65716358     0.15100
N726        N  0.04193342  0.38577425  0.66356295     0.74200
O727        O  0.94319783  0.50895652  0.67416432    -0.39200
O728        O  0.95338605  0.50451238  0.62284125    -0.39200
O729        O  0.04534942  0.37418812  0.69110689    -0.39900
O730        O  0.04830735  0.36970488  0.63920895    -0.39900
C731        C  0.28505876  0.38222476  0.50076384    -0.12200
C732        C  0.25961654  0.37539774  0.47527781     0.04800
C733        C  0.22045347  0.38611128  0.47610374    -0.07500
C734        C  0.20821379  0.40361418  0.50191949    -0.08300
C735        C  0.23383654  0.41057926  0.52725734    -0.02800
C736        C  0.27286645  0.39960002  0.52652594     0.04000
N737        N  0.29972117  0.40438238  0.55245955     0.66500
H738        H  0.31574775  0.37386891  0.50066791     0.15400
H739        H  0.17733390  0.41161111  0.50241958     0.15100
N740        N  0.19317953  0.38009266  0.45081375     0.74200
O741        O  0.30274138  0.38471260  0.57420551    -0.39200
O742        O  0.32653963  0.42377933  0.54944140    -0.39200
O743        O  0.16656245  0.36077638  0.45529562    -0.39900
O744        O  0.18899797  0.39913970  0.42857522    -0.39900
C745        C  0.30174118  0.05324358  0.25199424    -0.12200
C746        C  0.27742690  0.04756385  0.22565620     0.04800
C747        C  0.23617466  0.04441815  0.23076276    -0.07500
C748        C  0.22023497  0.04794665  0.26147460    -0.08300
C749        C  0.24421038  0.05534777  0.28746007    -0.02800
C750        C  0.28559809  0.05743135  0.28266386     0.04000
N751        N  0.31183241  0.06332323  0.30873874     0.66500
H752        H  0.33335417  0.05555784  0.24858560     0.15400
H753        H  0.18858606  0.04577677  0.26481831     0.15100
N754        N  0.20979739  0.03782933  0.20494494     0.74200
O755        O  0.32836233  0.04150325  0.32279049    -0.39200
O756        O  0.32628124  0.08927566  0.31163318    -0.39200
O757        O  0.19836603  0.01112546  0.20106644    -0.39900
O758        O  0.19008470  0.05896532  0.19249829    -0.39900
C759        C  0.12659926  0.05019864  0.50206620    -0.12200
C760        C  0.12212213  0.03147618  0.47493428     0.04800
C761        C  0.11599017  0.49764189  0.48021462    -0.07500
C762        C  0.11300570  0.48529501  0.51124385    -0.08300
C763        C  0.11473490  0.50315219  0.53925562    -0.02800
C764        C  0.12453701  0.03913228  0.53363465     0.04000
N765        N  0.13076794  0.05963621  0.55946487     0.66500
H766        H  0.13343208  0.07376773  0.49898150     0.15400
H767        H  0.11141010  0.46100311  0.51320362     0.15100
N768        N  0.11601263  0.47763385  0.45349478     0.74200
O769        O  0.16558437  0.06673393  0.56695482    -0.39200
O770        O  0.10267598  0.07636257  0.56819923    -0.39200
O771        O  0.14717596  0.46337720  0.44690723    -0.39900
O772        O  0.08348595  0.46806870  0.44298025    -0.39900
C773        C  0.28090081  0.44364770  0.35170697    -0.12200
C774        C  0.30538580  0.43247266  0.37596942     0.04800
C775        C  0.31517615  0.45150018  0.40205096    -0.07500
C776        C  0.29834788  0.48031853  0.40425183    -0.08300
C777        C  0.27146203  0.49038587  0.38117987    -0.02800
C778        C  0.26401826  0.47225767  0.35397971     0.04000
N779        N  0.23826703  0.48207144  0.32885446     0.66500
H780        H  0.27293993  0.42933009  0.33163559     0.15400
H781        H  0.31490206  0.99649068  0.41715631     0.15100
N782        N  0.33819852  0.44078351  0.42842908     0.74200
O783        O  0.25314827  0.49048174  0.30261719    -0.39200
O784        O  0.20270567  0.47383290  0.32926764    -0.39200
O785        O  0.37371769  0.44886537  0.43063821    -0.39900
O786        O  0.32068404  0.43168490  0.45328665    -0.39900
C787        C  0.21281928  0.23387910  0.36312069    -0.12200
C788        C  0.23357252  0.24143549  0.39122724     0.04800
C789        C  0.23650561  0.22002719  0.41606289    -0.07500
C790        C  0.22219532  0.19104439  0.41128432    -0.08300
C791        C  0.20488164  0.18249519  0.38213178    -0.02800
C792        C  0.19846859  0.20455427  0.35832948     0.04000
N793        N  0.18076430  0.19709073  0.32830823     0.66500
H794        H  0.21062657  0.25009482  0.34363481     0.15400
H795        H  0.22653890  0.17447846  0.43022459     0.15100
N796        N  0.25533208  0.22695525  0.44583166     0.74200
O797        O  0.14451634  0.20230555  0.32417169    -0.39200
O798        O  0.20252785  0.19314434  0.30414646    -0.39200
O799        O  0.23424149  0.23215225  0.47011725    -0.39900
O800        O  0.29101177  0.21977191  0.44983751    -0.39900
C801        C  0.28169526  0.19721773  0.78272754    -0.12200
C802        C  0.24280077  0.20792251  0.78752629     0.04800
C803        C  0.22383772  0.22241478  0.76160090    -0.07500
C804        C  0.24317160  0.22498454  0.73193364    -0.08300
C805        C  0.28188099  0.21420135  0.72721016    -0.02800
C806        C  0.30119805  0.20024728  0.75315351     0.04000
N807        N  0.33932730  0.18703958  0.74930836     0.66500
H808        H  0.29733500  0.18605306  0.80218355     0.15400
H809        H  0.22720025  0.23506280  0.71198565     0.15100
N810        N  0.18436337  0.23335446  0.76427774     0.74200
O811        O  0.36938901  0.20131891  0.75842411    -0.39200
O812        O  0.34212428  0.15921556  0.74394607    -0.39200
O813        O  0.17863037  0.26115125  0.76804272    -0.39900
O814        O  0.15633911  0.21714296  0.75455681    -0.39900
C815        C  0.30253204  0.07998178  0.60554692    -0.12200
C816        C  0.29427630  0.09978746  0.63099885     0.04800
C817        C  0.26946761  0.08982443  0.65594297    -0.07500
C818        C  0.25210423  0.06147118  0.65412438    -0.08300
C819        C  0.25817774  0.04237796  0.62773398    -0.02800
C820        C  0.28459175  0.05160468  0.60354934     0.04000
N821        N  0.29965440  0.53319760  0.58119146     0.66500
H822        H  0.32088973  0.08741224  0.58570666     0.15400
H823        H  0.23256463  0.05464037  0.67343974     0.15100
N824        N  0.26100337  0.10827614  0.68311369     0.74200
O825        O  0.28227193  0.53580201  0.55452795    -0.39200
O826        O  0.33289322  0.52041326  0.58229508    -0.39200
O827        O  0.22726350  0.12007798  0.68563161    -0.39900
O828        O  0.28247163  0.10598953  0.70776195    -0.39900
C829        C  0.22057752  0.29912869  0.60392497    -0.12200
C830        C  0.24542606  0.29061054  0.62928951     0.04800
C831        C  0.24900863  0.31017827  0.65602439    -0.07500
C832        C  0.23145096  0.33855996  0.65539985    -0.08300
C833        C  0.20889858  0.34783257  0.62923042    -0.02800
C834        C  0.20215912  0.32747378  0.60372768     0.04000
N835        N  0.17944653  0.33608043  0.57627382     0.66500
H836        H  0.21709465  0.28444264  0.58334648     0.15400
H837        H  0.23618845  0.35379289  0.67537006     0.15100
N838        N  0.27019630  0.30162077  0.68428151     0.74200
O839        O  0.19670009  0.34748893  0.55240086    -0.39200
O840        O  0.14528727  0.32541858  0.57272684    -0.39200
O841        O  0.30397311  0.31251393  0.68918784    -0.39900
O842        O  0.25127734  0.29087974  0.70764986    -0.39900
C843        C  0.38246023  0.29838734  0.50613475    -0.12200
C844        C  0.38569970  0.27997943  0.47869539     0.04800
C845        C  0.39513744  0.24936569  0.48359751    -0.07500
C846        C  0.39738714  0.23768943  0.51500505    -0.08300
C847        C  0.39080792  0.25572861  0.54234827    -0.02800
C848        C  0.38500519  0.28683695  0.53740162     0.04000
N849        N  0.38135515  0.30717464  0.56370065     0.66500
H850        H  0.37641781  0.32238805  0.50356823     0.15400
H851        H  0.40284823  0.21361818  0.51783239     0.15100
N852        N  0.40264568  0.22980087  0.45718480     0.74200
O853        O  0.41132371  0.32165950  0.57268879    -0.39200
O854        O  0.34756040  0.31644288  0.57165532    -0.39200
O855        O  0.43783688  0.22485001  0.44889721    -0.39900
O856        O  0.37588888  0.21228902  0.44772433    -0.39900
C857        C  0.28261225  0.12499880  0.48126598    -0.12200
C858        C  0.24171715  0.12547774  0.47697628     0.04800
C859        C  0.21838543  0.14367393  0.49743785    -0.07500
C860        C  0.23634404  0.16097220  0.52103692    -0.08300
C861        C  0.27723314  0.16036630  0.52558097    -0.02800
C862        C  0.30056899  0.14205837  0.50517843     0.04000
N863        N  0.34233259  0.13947411  0.50890029     0.66500
H864        H  0.30115547  0.11151199  0.46562696     0.15400
H865        H  0.21767647  0.17444801  0.53658491     0.15100
N866        N  0.17630662  0.14449217  0.49529653     0.74200
O867        O  0.35619525  0.11791229  0.52514634    -0.39200
O868        O  0.36450289  0.15303558  0.48940237    -0.39200
O869        O  0.15631636  0.12980224  0.51542056    -0.39900
O870        O  0.15993422  0.16556262  0.47987324    -0.39900
C871        C  0.74610507  0.02556017  0.27537329    -0.12200
C872        C  0.78412497  0.03768948  0.27961381     0.04800
C873        C  0.80120586  0.05352621  0.25403479    -0.07500
C874        C  0.77973747  0.05792858  0.22557979    -0.08300
C875        C  0.74087291  0.04701108  0.22165021    -0.02800
C876        C  0.72453965  0.02981923  0.24682882     0.04000
N877        N  0.68526759  0.01841296  0.24515232     0.66500
H878        H  0.73223820  0.01366982  0.29505697     0.15400
H879        H  0.79363355  0.07060893  0.20649105     0.15100
N880        N  0.83889714  0.06740587  0.25733104     0.74200
O881        O  0.68029908  0.99038350  0.24342325    -0.39200
O882        O  0.65739350  0.03451741  0.25548621    -0.39200
O883        O  0.86860492  0.05519571  0.24460156    -0.39900
O884        O  0.84065890  0.09466752  0.26545276    -0.39900
C885        C  0.79677706  0.20702837  0.38417524    -0.12200
C886        C  0.75577837  0.20962985  0.37980441     0.04800
C887        C  0.73403936  0.18329505  0.37294684    -0.07500
C888        C  0.75319258  0.15591823  0.36950540    -0.08300
C889        C  0.79399541  0.15277302  0.37418436    -0.02800
C890        C  0.81604837  0.17895257  0.38155767     0.04000
N891        N  0.85782654  0.17772527  0.38596194     0.66500
H892        H  0.81412990  0.22696359  0.38908785     0.15400
H893        H  0.73489288  0.13652792  0.36438702     0.15100
N894        N  0.69192487  0.18339037  0.37072450     0.74200
O895        O  0.87994911  0.18232154  0.36216467    -0.39200
O896        O  0.87202973  0.17990029  0.41385555    -0.39200
O897        O  0.67590009  0.18314191  0.34337508    -0.39900
O898        O  0.67203347  0.17535058  0.39479984    -0.39900
C899        C  0.73170430  0.45255212  0.41014833    -0.12200
C900        C  0.74985390  0.46261881  0.38199772     0.04800
C901        C  0.74990241  0.44354313  0.35478981    -0.07500
C902        C  0.73440291  0.41456424  0.35686756    -0.08300
C903        C  0.71829025  0.40377551  0.38546848    -0.02800
C904        C  0.71618343  0.42338117  0.41224753     0.04000
N905        N  0.70223870  0.41319059  0.44268325     0.66500
H906        H  0.73176693  0.46672037  0.43137944     0.15400
H907        H  0.73571762  0.40009073  0.33589737     0.15100
N908        N  0.76578177  0.45312424  0.32473174     0.74200
O909        O  0.72709603  0.40601994  0.46392904    -0.39200
O910        O  0.66743201  0.41946243  0.45102051    -0.39200
O911        O  0.80000927  0.44469590  0.31694773    -0.39900
O912        O  0.74248140  0.46223070  0.30314073    -0.39900
C913        C  0.87603278  0.47029189  0.46823311    -0.12200
C914        C  0.88923812  0.99957659  0.46691381     0.04800
C915        C  0.88888053  0.01582740  0.49632974    -0.07500
C916        C  0.88582501  0.00069476  0.52590923    -0.08300
C917        C  0.88038628  0.47132149  0.52700942    -0.02800
C918        C  0.87065062  0.45625500  0.49806691     0.04000
N919        N  0.85155759  0.42773723  0.49826536     0.66500
H920        H  0.86634114  0.45839956  0.44692097     0.15400
H921        H  0.88447271  0.01405253  0.54762746     0.15100
N922        N  0.88743798  0.04789102  0.49699144     0.74200
O923        O  0.81436875  0.42705093  0.49806998    -0.39200
O924        O  0.87055715  0.40489164  0.48913180    -0.39200
O925        O  0.85530982  0.06048095  0.50426437    -0.39900
O926        O  0.91912213  0.06227270  0.50061262    -0.39900
C927        C  0.98508918  0.09055043  0.34928161    -0.12200
C928        C  0.97013467  0.06122153  0.34680792     0.04800
C929        C  0.99664468  0.03764809  0.33930537    -0.07500
C930        C  0.03728897  0.04324586  0.33896910    -0.08300
C931        C  0.05228383  0.07172593  0.34685809    -0.02800
C932        C  0.02556869  0.09595310  0.34993480     0.04000
N933        N  0.03868718  0.12582762  0.35638587     0.66500
H934        H  0.96540850  0.10935685  0.35361056     0.15400
H935        H  0.05716186  0.02433642  0.33587215     0.15100
N936        N  0.98354201  0.00744298  0.33490440     0.74200
O937        O  0.04065557  0.14439458  0.33352296    -0.39200
O938        O  0.03724373  0.13554964  0.38478712    -0.39200
O939        O  0.98235909  0.99678163  0.30689568    -0.39900
O940        O  0.98369080  0.98966982  0.35855446    -0.39900
C941        C  0.75262575  0.22689582  0.73063002    -0.12200
C942        C  0.73457218  0.19969710  0.72194983     0.04800
C943        C  0.73797165  0.17506739  0.74318032    -0.07500
C944        C  0.75908856  0.17779810  0.77188004    -0.08300
C945        C  0.77771549  0.20474280  0.78066072    -0.02800
C946        C  0.77422759  0.22960214  0.75952176     0.04000
N947        N  0.79195617  0.25777221  0.76696313     0.66500
H948        H  0.75143521  0.24589331  0.71418526     0.15400
H949        H  0.76075791  0.15835727  0.78769661     0.15100
N950        N  0.72053436  0.14676832  0.73575415     0.74200
O951        O  0.82515854  0.26392713  0.75506561    -0.39200
O952        O  0.77055821  0.27883879  0.77734637    -0.39200
O953        O  0.74204334  0.12619866  0.72455680    -0.39900
O954        O  0.68784694  0.13996649  0.74817405    -0.39900
C955        C  0.61362679  0.24462442  0.52294313    -0.12200
C956        C  0.62992077  0.21571178  0.52548932     0.04800
C957        C  0.64043034  0.20086843  0.49651992    -0.07500
C958        C  0.63587465  0.21544656  0.46671445    -0.08300
C959        C  0.62133306  0.24492731  0.46421051    -0.02800
C960        C  0.60911724  0.25919677  0.49310795     0.04000
N961        N  0.59355953  0.28905438  0.49306624     0.66500
H962        H  0.60491441  0.25654130  0.54460745     0.15400
H963        H  0.64599470  0.20384881  0.44521461     0.15100
N964        N  0.65898514  0.17199388  0.49685551     0.74200
O965        O  0.55671237  0.29284430  0.49168149    -0.39200
O966        O  0.61503626  0.31036001  0.50256650    -0.39200
O967        O  0.63942990  0.14926830  0.48838363    -0.39900
O968        O  0.69614650  0.17049971  0.49705205    -0.39900
C969        C  0.82230900  0.30221080  0.61338484    -0.12200
C970        C  0.80372777  0.32146966  0.63555602     0.04800
C971        C  0.77195104  0.31009776  0.65362720    -0.07500
C972        C  0.75733489  0.28137718  0.64740756    -0.08300
C973        C  0.77366069  0.26296819  0.62356654    -0.02800
C974        C  0.80767505  0.27304948  0.60732741     0.04000
N975        N  0.82575684  0.25520016  0.58301383     0.66500
H976        H  0.84640598  0.31067215  0.59880120     0.15400
H977        H  0.73180703  0.27367189  0.66085562     0.15100
N978        N  0.75324059  0.32785106  0.67776717     0.74200
O979        O  0.81688698  0.25991435  0.55401227    -0.39200
O980        O  0.85700809  0.24098351  0.58957110    -0.39200
O981        O  0.72093315  0.34074039  0.67146741    -0.39900
O982        O  0.76319665  0.32414438  0.70669794    -0.39900
C983        C  0.75997169  0.03298889  0.64473865    -0.12200
C984        C  0.73662923  0.01328077  0.62686100     0.04800
C985        C  0.69701760  0.02117264  0.62063767    -0.07500
C986        C  0.68378857  0.05041033  0.62792457    -0.08300
C987        C  0.70915784  0.07140910  0.64240251    -0.02800
C988        C  0.74645078  0.06138234  0.65324014     0.04000
N989        N  0.77117166  0.07959182  0.67297307     0.66500
H990        H  0.78951085  0.02633305  0.65212488     0.15400
H991        H  0.65469458  0.05736101  0.61982970     0.15100
N992        N  0.67077163  0.00078828  0.60516888     0.74200
O993        O  0.77240140  0.07389732  0.70263279    -0.39200
O994        O  0.79993342  0.09306389  0.66032037    -0.39200
O995        O  0.64490661  0.98763536  0.62173342    -0.39900
O996        O  0.66664168  0.00206922  0.57510604    -0.39900
C997        C  0.53481022  0.20913039  0.65628915    -0.12200
C998        C  0.55069017  0.18045566  0.65063116     0.04800
C999        C  0.52450699  0.15576436  0.64925453    -0.07500
C1000       C  0.48363803  0.16059979  0.65069686    -0.08300
C1001       C  0.46766302  0.18973406  0.65274508    -0.02800
C1002       C  0.49400749  0.21410672  0.65682389     0.04000
N1003       N  0.48032611  0.24448436  0.65807977     0.66500
H1004       H  0.55410463  0.22851513  0.65741644     0.15400
H1005       H  0.46426607  0.14138179  0.64816097     0.15100
N1006       N  0.53856800  0.12571482  0.64515804     0.74200
O1007       O  0.47811134  0.25754258  0.68484935    -0.39200
O1008       O  0.47976643  0.25998839  0.63267544    -0.39200
O1009       O  0.53971917  0.10841292  0.66918029    -0.39900
O1010       O  0.53895315  0.11448456  0.61738627    -0.39900
C1011       C  0.78154942  0.13373295  0.51892873    -0.12200
C1012       C  0.75023544  0.12028630  0.53500349     0.04800
C1013       C  0.73488873  0.09269896  0.52333125    -0.07500
C1014       C  0.75030823  0.07986488  0.49559900    -0.08300
C1015       C  0.78120196  0.09361468  0.47930311    -0.02800
C1016       C  0.79707601  0.12082915  0.49134229     0.04000
N1017       N  0.82703882  0.13699708  0.47470236     0.66500
H1018       H  0.79340516  0.15499094  0.52718062     0.15400
H1019       H  0.73827648  0.05878251  0.48699800     0.15100
N1020       N  0.70496743  0.07651343  0.54001286     0.74200
O1021       O  0.81691688  0.15873253  0.45701817    -0.39200
O1022       O  0.86213252  0.13546490  0.48471554    -0.39200
O1023       O  0.66990877  0.07763162  0.52986559    -0.39900
O1024       O  0.71518659  0.05529701  0.55834963    -0.39900
Fe1025     Fe  0.66153666  0.71598485  0.63156074     1.65800
Fe1026     Fe  0.64535356  0.64753199  0.59802589     1.73200
Fe1027     Fe  0.73629429  0.66644877  0.62441227     1.54400
O1028       O  0.75949693  0.71021611  0.62275577    -0.81600
O1029       O  0.65959014  0.61364963  0.63033517    -0.79900
O1030       O  0.70794972  0.73889621  0.61229180    -0.84100
O1031       O  0.69185525  0.71207720  0.67673010    -0.79000
O1032       O  0.74238602  0.66024688  0.57570124    -0.80800
O1033       O  0.59567621  0.65878965  0.62423705    -0.83500
C1034       C  0.71725880  0.69349942  0.68883915     0.97300
C1035       C  0.74406105  0.73594067  0.61874266     1.04700
O1036       O  0.68061885  0.67665341  0.61870928    -1.12500
O1037       O  0.63101094  0.67806335  0.56251136    -0.74900
O1038       O  0.63358927  0.72289242  0.58623102    -0.78400
O1039       O  0.73160614  0.67176466  0.67286098    -0.79100
C1040       C  0.62783409  0.70647534  0.56127965     0.96200
O1041       O  0.61066925  0.69944121  0.65238851    -0.77100
O1042       O  0.68893667  0.63218893  0.56856427    -0.82300
C1043       C  0.69478072  0.60389306  0.63310860     0.98800
C1044       C  0.72312630  0.64034711  0.56030619     1.04700
O1045       O  0.72434718  0.62100835  0.62927332    -0.77900
C1046       C  0.58657617  0.67906365  0.64422571     1.03000
Fe1047     Fe  0.85396378  0.51731642  0.36464613     1.65800
Fe1048     Fe  0.86637561  0.57935566  0.40985056     1.73200
Fe1049     Fe  0.77482235  0.55820317  0.38486149     1.54400
O1050       O  0.77327881  0.54713023  0.33655057    -0.81600
O1051       O  0.83209154  0.58056145  0.44966058    -0.79900
O1052       O  0.83353147  0.53303378  0.31989363    -0.84100
O1053       O  0.80441089  0.49111532  0.36630002    -0.79000
O1054       O  0.78083889  0.60295619  0.37289273    -0.80800
O1055       O  0.89629609  0.54320207  0.43133180    -0.83500
C1056       C  0.77275459  0.49098762  0.38204612     0.97300
C1057       C  0.79740652  0.54028646  0.31422184     1.04700
O1058       O  0.83147152  0.55223621  0.38625044    -1.12500
O1059       O  0.90460173  0.58267118  0.37213984    -0.74900
O1060       O  0.90975361  0.53527251  0.35816710    -0.78400
O1061       O  0.76149501  0.51397178  0.39756077    -0.79100
C1062       C  0.92421514  0.56133786  0.36020898     0.96200
O1063       O  0.87009607  0.50177654  0.41020254    -0.77100
O1064       O  0.83846142  0.61812315  0.39355930    -0.82300
C1065       C  0.79521076  0.58031492  0.45350253     0.98800
C1066       C  0.80471577  0.62347127  0.38142299     1.04700
O1067       O  0.77116465  0.57108267  0.43226432    -0.77900
C1068       C  0.88624189  0.51565349  0.43372655     1.03000
Fe1069     Fe  0.34842004  0.74038240  0.64644438     1.65800
Fe1070     Fe  0.36195010  0.67935188  0.60044665     1.73200
Fe1071     Fe  0.27068051  0.69736658  0.62767148     1.54400
O1072       O  0.26924973  0.71002916  0.67529915    -0.81600
O1073       O  0.32723625  0.67973333  0.56053386    -0.79900
O1074       O  0.32977642  0.72389174  0.69123180    -0.84100
O1075       O  0.29726662  0.76505078  0.64492082    -0.79000
O1076       O  0.28014879  0.65331465  0.64187800    -0.80800
O1077       O  0.39161313  0.71618601  0.58083852    -0.83500
C1078       C  0.26524948  0.76435953  0.62946642     0.97300
C1079       C  0.29384244  0.71674780  0.69727324     1.04700
O1080       O  0.32678351  0.70525039  0.62497362    -1.12500
O1081       O  0.40047005  0.67543503  0.63822807    -0.74900
O1082       O  0.40515659  0.72296370  0.65212758    -0.78400
O1083       O  0.25490046  0.74106150  0.61393399    -0.79100
C1084       C  0.42006302  0.69689720  0.64995361     0.96200
O1085       O  0.36312503  0.75706019  0.60109879    -0.77100
O1086       O  0.33455146  0.63995798  0.61538124    -0.82300
C1087       C  0.29054120  0.67546283  0.55838840     0.98800
C1088       C  0.30354603  0.63334473  0.63107777     1.04700
O1089       O  0.26674085  0.68216641  0.58089335    -0.77900
C1090       C  0.38055120  0.74352620  0.57807399     1.03000
Fe1091     Fe  0.16482802  0.53858687  0.37432016     1.65800
Fe1092     Fe  0.14887657  0.60476310  0.41229198     1.73200
Fe1093     Fe  0.24034623  0.58735004  0.38661051     1.54400
O1094       O  0.26264658  0.54342192  0.38637484    -0.81600
O1095       O  0.16304081  0.63967200  0.38165633    -0.79900
O1096       O  0.21085443  0.51356060  0.39097572    -0.84100
O1097       O  0.19598245  0.54535142  0.33057884    -0.79000
O1098       O  0.24546588  0.59077678  0.43593496    -0.80800
O1099       O  0.09967937  0.59545439  0.38552136    -0.83500
C1100       C  0.22375917  0.56284407  0.32073841     0.97300
C1101       C  0.24729784  0.51745580  0.38708632     1.04700
O1102       O  0.18445295  0.57677195  0.39040100    -1.12500
O1103       O  0.13414921  0.57227219  0.44508412    -0.74900
O1104       O  0.13609252  0.52868506  0.41870227    -0.78400
O1105       O  0.23829938  0.58381772  0.33774176    -0.79100
C1106       C  0.13005216  0.54390492  0.44444142     0.96200
O1107       O  0.11428825  0.55688878  0.35428154    -0.77100
O1108       O  0.19160601  0.61837809  0.44350021    -0.82300
C1109       C  0.19772678  0.65029252  0.38154827     0.98800
C1110       C  0.22518332  0.60923491  0.45246205     1.04700
O1111       O  0.22802214  0.63349468  0.38464332    -0.77900
C1112       C  0.09038372  0.57679516  0.36406627     1.03000
Fe1113     Fe  0.15028875  0.99016501  0.64121510     1.65800
Fe1114     Fe  0.14162842  0.93041693  0.59213437     1.73200
Fe1115     Fe  0.22984143  0.94679704  0.62589954     1.54400
O1116       O  0.24710086  0.99043011  0.61345205    -0.81600
O1117       O  0.16947887  0.89062008  0.60447490    -0.79900
O1118       O  0.20065229  0.01565056  0.63955852    -0.84100
O1119       O  0.16817997  0.97548257  0.68727566    -0.79000
O1120       O  0.23795269  0.93247804  0.57953437    -0.80800
O1121       O  0.10086543  0.92305149  0.62762892    -0.83500
C1122       C  0.20316087  0.96664447  0.69458649     0.97300
C1123       C  0.23418993  0.01446677  0.62624483     1.04700
O1124       O  0.17399935  0.95530347  0.62038189    -1.12500
O1125       O  0.10972118  0.96666061  0.57454049    -0.74900
O1126       O  0.13656771  0.00729673  0.59544108    -0.78400
O1127       O  0.22821330  0.95873203  0.67354286    -0.79100
C1128       C  0.12076932  0.99375178  0.57176493     0.96200
O1129       O  0.09479576  0.96946564  0.64618365    -0.77100
O1130       O  0.17997201  0.93547013  0.55473464    -0.82300
C1131       C  0.19723991  0.88306600  0.62327029     0.98800
C1132       C  0.21639022  0.92896682  0.55498174     1.04700
O1133       O  0.21787798  0.90242794  0.63836098    -0.77900
C1134       C  0.08099571  0.94307448  0.64192282     1.03000
Fe1135     Fe  0.33794850  0.78488078  0.38074420     1.65800
Fe1136     Fe  0.35586117  0.85376282  0.41266013     1.73200
Fe1137     Fe  0.26622442  0.83804878  0.38156344     1.54400
O1138       O  0.27532345  0.83034230  0.33403000    -0.81600
O1139       O  0.31114941  0.87018519  0.44109486    -0.79900
O1140       O  0.30721017  0.78618578  0.33576757    -0.84100
O1141       O  0.29033277  0.76591410  0.40301823    -0.79000
O1142       O  0.28114309  0.88304593  0.37598378    -0.80800
O1143       O  0.36762180  0.82330276  0.44806207    -0.83500
C1144       C  0.25465301  0.76969466  0.39544552     0.97300
C1145       C  0.28493103  0.80545697  0.32137331     1.04700
O1146       O  0.32044051  0.82567282  0.39123052    -1.12500
O1147       O  0.40490185  0.84001195  0.38693207    -0.74900
O1148       O  0.38896996  0.79937824  0.35856570    -0.78400
O1149       O  0.24178269  0.79481970  0.38520685    -0.79100
C1150       C  0.41354084  0.81934441  0.36706989     0.96200
O1151       O  0.36784370  0.77830280  0.42502505    -0.77100
O1152       O  0.34599138  0.88838227  0.38070945    -0.82300
C1153       C  0.27498371  0.86459404  0.44629158     0.98800
C1154       C  0.31193941  0.89930794  0.37574221     1.04700
O1155       O  0.25441979  0.84721879  0.42885027    -0.77900
C1156       C  0.37270557  0.79513776  0.44954321     1.03000
Fe1157     Fe  0.83791393  0.96649032  0.62913740     1.65800
Fe1158     Fe  0.85332617  0.89742258  0.59774971     1.73200
Fe1159     Fe  0.76339197  0.91628928  0.62512750     1.54400
O1160       O  0.77126049  0.92253190  0.67299100    -0.81600
O1161       O  0.80876271  0.88170293  0.56937409    -0.79900
O1162       O  0.80688361  0.96501747  0.67383953    -0.84100
O1163       O  0.79063721  0.98626798  0.60696334    -0.79000
O1164       O  0.77551509  0.87095347  0.63040050    -0.80800
O1165       O  0.86680855  0.92693829  0.56106841    -0.83500
C1166       C  0.75571970  0.98484644  0.61717884     0.97300
C1167       C  0.78249626  0.94646688  0.68686660     1.04700
O1168       O  0.81879869  0.92669158  0.61809621    -1.12500
O1169       O  0.90282740  0.91012565  0.62335998    -0.74900
O1170       O  0.88940877  0.95129497  0.65138847    -0.78400
O1171       O  0.74005567  0.95984077  0.62371214    -0.79100
C1172       C  0.91309129  0.93056841  0.64292470     0.96200
O1173       O  0.86710071  0.97178551  0.58461021    -0.77100
O1174       O  0.84040075  0.86428498  0.63120680    -0.82300
C1175       C  0.77447340  0.89006747  0.56091471     0.98800
C1176       C  0.80552102  0.85423473  0.63442135     1.04700
O1177       O  0.75463758  0.90937925  0.57669350    -0.77900
C1178       C  0.87185861  0.95515679  0.55979533     1.03000
Fe1179     Fe  0.65186026  0.76544274  0.36484805     1.65800
Fe1180     Fe  0.64090991  0.82763373  0.40969410     1.73200
Fe1181     Fe  0.73128750  0.80863686  0.37982338     1.54400
O1182       O  0.74746113  0.76550152  0.39417399    -0.81600
O1183       O  0.66801282  0.86636218  0.39364539    -0.79900
O1184       O  0.70137562  0.73911985  0.36908651    -0.84100
O1185       O  0.67107507  0.77932698  0.31864514    -0.79000
O1186       O  0.73841947  0.82362091  0.42620460    -0.80800
O1187       O  0.59922478  0.83206413  0.37395078    -0.83500
C1188       C  0.70626532  0.78761465  0.31132216     0.97300
C1189       C  0.73382333  0.74078303  0.38391032     1.04700
O1190       O  0.67479374  0.80105059  0.38430425    -1.12500
O1191       O  0.61086470  0.79246587  0.43153982    -0.74900
O1192       O  0.63625266  0.75060293  0.41133267    -0.78400
O1193       O  0.73128276  0.79563689  0.33233699    -0.79100
C1194       C  0.62072712  0.76505067  0.43471230     0.96200
O1195       O  0.59663456  0.78487970  0.35769610    -0.77100
O1196       O  0.67842833  0.82606614  0.44751498    -0.82300
C1197       C  0.69837220  0.87262033  0.37720326     0.98800
C1198       C  0.71536769  0.82919378  0.44935429     1.04700
O1199       O  0.72102194  0.85248219  0.36564781    -0.77900
C1200       C  0.58091191  0.81067975  0.36072007     1.03000
Fe1201     Fe  0.84957460  0.73481239  0.86618404     1.65800
Fe1202     Fe  0.86111510  0.66939835  0.90823436     1.73200
Fe1203     Fe  0.77009661  0.69117604  0.88328213     1.54400
O1204       O  0.75074740  0.73516351  0.88858437    -0.81600
O1205       O  0.84365468  0.63399313  0.88020978    -0.79900
O1206       O  0.80315606  0.76243122  0.87658608    -0.84100
O1207       O  0.82246651  0.72555086  0.82113483    -0.79000
O1208       O  0.76545986  0.68587551  0.93211064    -0.80800
O1209       O  0.90999093  0.67424933  0.88053583    -0.83500
C1210       C  0.79104198  0.71085795  0.81377282     0.97300
C1211       C  0.76700863  0.76017866  0.88318968     1.04700
O1212       O  0.82707683  0.69846830  0.88521630    -1.12500
O1213       O  0.87901789  0.70265515  0.93905939    -0.74900
O1214       O  0.87388437  0.74592679  0.91167668    -0.78400
O1215       O  0.77045304  0.69660907  0.83429127    -0.79100
C1216       C  0.88098278  0.73114443  0.93770415     0.96200
O1217       O  0.90186754  0.71496780  0.85091853    -0.77100
O1218       O  0.81906549  0.65813943  0.94034951    -0.82300
C1219       C  0.80795269  0.62659500  0.87584249     0.98800
C1220       C  0.78543281  0.66732765  0.94850596     1.04700
O1221       O  0.77960412  0.64538523  0.87775652    -0.77900
C1222       C  0.92237354  0.69264627  0.85999679     1.03000
Fe1223     Fe  0.66495852  0.53402405  0.13291510     1.65800
Fe1224     Fe  0.65047602  0.60188718  0.09757940     1.73200
Fe1225     Fe  0.74079694  0.58292217  0.12538093     1.54400
O1226       O  0.73592277  0.57716799  0.17385705    -0.81600
O1227       O  0.69437959  0.61734008  0.06837572    -0.79900
O1228       O  0.69582500  0.53722224  0.17753613    -0.84100
O1229       O  0.71065738  0.51098865  0.11306034    -0.79000
O1230       O  0.72890594  0.62855731  0.13027721    -0.80800
O1231       O  0.63711044  0.57052108  0.06263505    -0.83500
C1232       C  0.74668248  0.51344245  0.11982892     0.97300
C1233       C  0.72215170  0.55485997  0.18933242     1.04700
O1234       O  0.68509134  0.57298411  0.11930032    -1.12500
O1235       O  0.60070222  0.59111046  0.12366973    -0.74900
O1236       O  0.61521803  0.55176153  0.15434231    -0.78400
O1237       O  0.76275630  0.53887444  0.12373897    -0.79100
C1238       C  0.59153837  0.57213462  0.14509992     0.96200
O1239       O  0.63571098  0.52655561  0.08834893    -0.77100
O1240       O  0.66394305  0.63585008  0.12956355    -0.82300
C1241       C  0.72866711  0.60881191  0.06063841     0.98800
C1242       C  0.69892637  0.64559504  0.13319164     1.04700
O1243       O  0.74817683  0.58931763  0.07656019    -0.77900
C1244       C  0.63195487  0.54218900  0.06257763     1.03000
Fe1245     Fe  0.16310136  0.72553220  0.87778895     1.65800
Fe1246     Fe  0.14610869  0.65813676  0.91412111     1.73200
Fe1247     Fe  0.23689065  0.67515684  0.88577016     1.54400
O1248       O  0.23139190  0.68030690  0.83728311    -0.81600
O1249       O  0.18990116  0.64353838  0.94455592    -0.79900
O1250       O  0.19395294  0.72183124  0.83344362    -0.84100
O1251       O  0.20999294  0.74752965  0.89804505    -0.79000
O1252       O  0.22352687  0.63018314  0.88156961    -0.80800
O1253       O  0.13160922  0.68946205  0.94832293    -0.83500
C1254       C  0.24611174  0.74396829  0.89169369     0.97300
C1255       C  0.21892709  0.70304896  0.82168182     1.04700
O1256       O  0.18160185  0.68623990  0.89199147    -1.12500
O1257       O  0.09745669  0.66973634  0.88693524    -0.74900
O1258       O  0.11262797  0.70909457  0.85635579    -0.78400
O1259       O  0.26084429  0.71821341  0.88707160    -0.79100
C1260       C  0.08857173  0.68915728  0.86570741     0.96200
O1261       O  0.13338133  0.73292013  0.92145498    -0.77100
O1262       O  0.15874630  0.62309927  0.88316225    -0.82300
C1263       C  0.22465578  0.65177207  0.95154892     0.98800
C1264       C  0.19352630  0.61337657  0.87863293     1.04700
O1265       O  0.24475574  0.66955681  0.93422033    -0.77900
C1266       C  0.12718896  0.71771968  0.94714189     1.03000
Fe1267     Fe  0.35103190  0.52258341  0.14322553     1.65800
Fe1268     Fe  0.36414164  0.58588276  0.09845682     1.73200
Fe1269     Fe  0.27221672  0.56596549  0.12277851     1.54400
O1270       O  0.25294371  0.52184614  0.11864039    -0.81600
O1271       O  0.34484457  0.62315802  0.12373941    -0.79900
O1272       O  0.30381355  0.49594340  0.13674230    -0.84100
O1273       O  0.32525288  0.53610637  0.18768183    -0.79000
O1274       O  0.26886218  0.57007642  0.07392225    -0.80800
O1275       O  0.41178455  0.58222337  0.12850457    -0.83500
C1276       C  0.29194504  0.54934688  0.19334139     0.97300
C1277       C  0.26822570  0.49764841  0.12875637     1.04700
O1278       O  0.32925652  0.55831564  0.12215913    -1.12500
O1279       O  0.38338812  0.55071855  0.07024118    -0.74900
O1280       O  0.37248378  0.50810233  0.09773267    -0.78400
O1281       O  0.27119403  0.56152011  0.17146513    -0.79100
C1282       C  0.38168915  0.52213349  0.07169082     0.96200
O1283       O  0.40524008  0.54007209  0.15584532    -0.77100
O1284       O  0.32392549  0.59518427  0.06351889    -0.82300
C1285       C  0.30918957  0.63064749  0.12910726     0.98800
C1286       C  0.28989296  0.58639905  0.05593485     1.04700
O1287       O  0.28088468  0.61194923  0.12781844    -0.77900
C1288       C  0.42527432  0.56260630  0.14750971     1.03000
Fe1289     Fe  0.34006022  0.97255577  0.87276244     1.65800
Fe1290     Fe  0.35541674  0.90493381  0.90718799     1.73200
Fe1291     Fe  0.26534184  0.92302387  0.87945449     1.54400
O1292       O  0.24327349  0.96751615  0.87870600    -0.81600
O1293       O  0.34264799  0.87111871  0.87499730    -0.79900
O1294       O  0.29448244  0.99301903  0.89536744    -0.84100
O1295       O  0.30724630  0.96948482  0.82868126    -0.79000
O1296       O  0.25747688  0.91800979  0.92861171    -0.80800
O1297       O  0.40493299  0.91679718  0.88131776    -0.83500
C1298       C  0.28366165  0.95007133  0.81606374     0.97300
C1299       C  0.25982576  0.99241687  0.88483506     1.04700
O1300       O  0.32086340  0.93333800  0.88561138    -1.12500
O1301       O  0.36799060  0.93587304  0.94207543    -0.74900
O1302       O  0.37091181  0.97983928  0.91660523    -0.78400
O1303       O  0.27212610  0.92681704  0.83104510    -0.79100
C1304       C  0.37366937  0.96404026  0.94229806     0.96200
O1305       O  0.38988110  0.95582359  0.85018876    -0.77100
O1306       O  0.31114388  0.88993951  0.93640034    -0.82300
C1307       C  0.30786536  0.86079120  0.87242888     0.98800
C1308       C  0.27732711  0.89902528  0.94512168     1.04700
O1309       O  0.27755510  0.87730690  0.87628752    -0.77900
C1310       C  0.41416674  0.93606990  0.86011191     1.03000
Fe1311     Fe  0.15576121  0.77310819  0.14243045     1.65800
Fe1312     Fe  0.14415627  0.83927010  0.10236695     1.73200
Fe1313     Fe  0.23544958  0.81774856  0.12816770     1.54400
O1314       O  0.23333629  0.80875016  0.17671684    -0.81600
O1315       O  0.18610690  0.85042230  0.06977340    -0.79900
O1316       O  0.17777590  0.78335088  0.18865822    -0.84100
O1317       O  0.20438669  0.74695561  0.13542369    -0.79000
O1318       O  0.22532516  0.86325260  0.13640869    -0.80800
O1319       O  0.12640720  0.80612529  0.07128693    -0.83500
C1320       C  0.24018867  0.74890217  0.12762872     0.97300
C1321       C  0.21068351  0.79557630  0.19667647     1.04700
O1322       O  0.17840268  0.81014083  0.12484321    -1.12500
O1323       O  0.09526750  0.83455243  0.13084987    -0.74900
O1324       O  0.10109786  0.79046526  0.15449883    -0.78400
O1325       O  0.25555334  0.77385517  0.12006822    -0.79100
C1326       C  0.08146932  0.81395880  0.14826588     0.96200
O1327       O  0.13647644  0.76168141  0.09568472    -0.77100
O1328       O  0.16152600  0.87464868  0.13023706    -0.82300
C1329       C  0.22100128  0.84360871  0.06219525     0.98800
C1330       C  0.19681310  0.88202466  0.13635745     1.04700
O1331       O  0.24247913  0.82695333  0.07980326    -0.77900
C1332       C  0.12831123  0.77757436  0.07071235     1.03000
Fe1333     Fe  0.65575868  0.98581810  0.86323469     1.65800
Fe1334     Fe  0.64254334  0.92493149  0.90974669     1.73200
Fe1335     Fe  0.73360113  0.94064056  0.87919179     1.54400
O1336       O  0.73213046  0.95210369  0.83125064    -0.81600
O1337       O  0.68041622  0.92459720  0.94780567    -0.79900
O1338       O  0.67214414  0.96967510  0.81768434    -0.84100
O1339       O  0.70767427  0.00955770  0.86368555    -0.79000
O1340       O  0.72174091  0.89650341  0.86696952    -0.80800
O1341       O  0.61552421  0.96217474  0.93055475    -0.83500
C1342       C  0.74171146  0.00776128  0.87597190     0.97300
C1343       C  0.70709322  0.96081599  0.81037503     1.04700
O1344       O  0.67751932  0.94998918  0.88376855    -1.12500
O1345       O  0.60021011  0.92170130  0.87423227    -0.74900
O1346       O  0.59839460  0.96894607  0.85817209    -0.78400
O1347       O  0.75305512  0.98400088  0.89034655    -0.79100
C1348       C  0.58215637  0.94333738  0.86094641     0.96200
O1349       O  0.64339567  0.00275643  0.90924977    -0.77100
O1350       O  0.66694060  0.88495882  0.89386918    -0.82300
C1351       C  0.71747617  0.92169887  0.94984451     0.98800
C1352       C  0.69725487  0.87743901  0.87784608     1.04700
O1353       O  0.74058759  0.92725985  0.92657664    -0.77900
C1354       C  0.62751474  0.98919564  0.93302846     1.03000
Fe1355     Fe  0.83954184  0.78177387  0.13020629     1.65800
Fe1356     Fe  0.85782649  0.85054126  0.09758706     1.73200
Fe1357     Fe  0.76712266  0.83312744  0.12435643     1.54400
O1358       O  0.74253764  0.78998874  0.12296184    -0.81600
O1359       O  0.84581431  0.88500840  0.12936391    -0.79900
O1360       O  0.79263619  0.76200733  0.10778624    -0.84100
O1361       O  0.80763663  0.78434214  0.17476417    -0.79000
O1362       O  0.76021163  0.83936799  0.07567912    -0.80800
O1363       O  0.90608217  0.83727207  0.12438276    -0.83500
C1364       C  0.78361057  0.80349410  0.18746220     0.97300
C1365       C  0.75715809  0.76459064  0.11622318     1.04700
O1366       O  0.82217108  0.82195869  0.11835589    -1.12500
O1367       O  0.87076182  0.82032787  0.06215596    -0.74900
O1368       O  0.86930570  0.77551710  0.08600093    -0.78400
O1369       O  0.77297639  0.82734173  0.17279257    -0.79100
C1370       C  0.87463684  0.79206681  0.06112118     0.96200
O1371       O  0.89052328  0.79647866  0.15272002    -0.77100
O1372       O  0.81430837  0.86670477  0.06810084    -0.82300
C1373       C  0.81088306  0.89506622  0.13190897     0.98800
C1374       C  0.77993530  0.85862755  0.05978899     1.04700
O1375       O  0.78109410  0.87805232  0.12860152    -0.77900
C1376       C  0.91476436  0.81682591  0.14457411     1.03000
C1377       C  0.78804595  0.89225273  0.01300973    -0.12200
C1378       C  0.76298380  0.87399386  0.03153566     0.04800
C1379       C  0.72249805  0.87324375  0.02416959    -0.07500
C1380       C  0.70806632  0.89031252  0.99849375    -0.08300
C1381       C  0.73337869  0.90822967  0.97963584    -0.02800
C1382       C  0.77373979  0.90930660  0.98748043     0.04000
N1383       N  0.80069288  0.92806445  0.97043151     0.66500
H1384       H  0.81920122  0.89364879  0.01837615     0.15400
H1385       H  0.67703849  0.88875293  0.99279380     0.15100
N1386       N  0.69559076  0.85550493  0.04251364     0.74200
O1387       O  0.80829657  0.95380977  0.98140239    -0.39200
O1388       O  0.82429000  0.91621000  0.95076698    -0.39200
O1389       O  0.68181616  0.86564354  0.06844452    -0.39900
O1390       O  0.69002376  0.82833988  0.03521156    -0.39900
C1391       C  0.01819531  0.78917361  0.16267986    -0.12200
C1392       C  0.03947704  0.81596930  0.15853212     0.04800
C1393       C  0.01834445  0.84343068  0.15802900    -0.07500
C1394       C  0.97709764  0.84322434  0.15734386    -0.08300
C1395       C  0.95597261  0.81616692  0.15673476    -0.02800
C1396       C  0.97684880  0.78892766  0.16141207     0.04000
N1397       N  0.95726537  0.76055282  0.16048105     0.66500
H1398       H  0.03366127  0.76775554  0.16344600     0.15400
H1399       H  0.96154377  0.86449632  0.15475710     0.15100
N1400       N  0.03809217  0.87169828  0.15618469     0.74200
O1401       O  0.95279770  0.74752534  0.13386522    -0.39200
O1402       O  0.95358349  0.74560434  0.18606349    -0.39200
O1403       O  0.04036937  0.88496416  0.12945214    -0.39900
O1404       O  0.04331024  0.88655846  0.18157237    -0.39900
C1405       C  0.47886433  0.91045565  0.85269202    -0.12200
C1406       C  0.45605373  0.93664236  0.84940086     0.04800
C1407       C  0.47554131  0.96388270  0.84242017    -0.07500
C1408       C  0.51693907  0.96526122  0.84394703    -0.08300
C1409       C  0.53981622  0.93957023  0.85115468    -0.02800
C1410       C  0.52017980  0.91152517  0.85296386     0.04000
N1411       N  0.54136919  0.88384242  0.85569927     0.66500
H1412       H  0.46450631  0.88903905  0.85667283     0.15400
H1413       H  0.53096661  0.98693859  0.84118853     0.15100
N1414       N  0.45373800  0.99080024  0.83610911     0.74200
O1415       O  0.54304211  0.87078749  0.88258253    -0.39200
O1416       O  0.54780162  0.86880502  0.83060732    -0.39200
O1417       O  0.44490873  0.00823229  0.85883843    -0.39900
O1418       O  0.43900687  0.99511557  0.80864477    -0.39900
C1419       C  0.28413569  0.86215413  0.98963392    -0.12200
C1420       C  0.26183693  0.88535064  0.97500087     0.04800
C1421       C  0.22565423  0.89363373  0.98887316    -0.07500
C1422       C  0.21301292  0.87910804  0.01664471    -0.08300
C1423       C  0.23592759  0.85674503  0.03188848    -0.02800
C1424       C  0.27162341  0.84787944  0.01762448     0.04000
N1425       N  0.29457708  0.82350385  0.03008572     0.66500
H1426       H  0.31165983  0.85449123  0.97914804     0.15400
H1427       H  0.18456710  0.88558950  0.02625432     0.15100
N1428       N  0.20139826  0.91681469  0.97553122     0.74200
O1429       O  0.28904377  0.79738281  0.01928785    -0.39200
O1430       O  0.32576165  0.82901748  0.04550678    -0.39200
O1431       O  0.17122507  0.90964237  0.95956826    -0.39900
O1432       O  0.20392269  0.94307160  0.98669501    -0.39900
C1433       C  0.40286571  0.52138598  0.01345894    -0.12200
C1434       C  0.38757182  0.50568112  0.04031410     0.04800
C1435       C  0.36945814  0.97474077  0.03311244    -0.07500
C1436       C  0.36818904  0.96225218  0.00217614    -0.08300
C1437       C  0.38084623  0.97813236  0.97467633    -0.02800
C1438       C  0.40110608  0.50966303  0.98195223     0.04000
N1439       N  0.41814213  0.52655928  0.95631757     0.66500
H1440       H  0.41535386  0.54361086  0.01669224     0.15400
H1441       H  0.35498152  0.94019343  0.99962913     0.15100
N1442       N  0.35197272  0.95825699  0.05884832     0.74200
O1443       O  0.39887242  0.54797777  0.94399491    -0.39200
O1444       O  0.44871178  0.02811930  0.95042978    -0.39200
O1445       O  0.31904443  0.45800951  0.06339834    -0.39900
O1446       O  0.37110754  0.93702182  0.07166847    -0.39900
C1447       C  0.21171477  0.96370857  0.11561179    -0.12200
C1448       C  0.24418942  0.97011978  0.13495438     0.04800
C1449       C  0.25523151  0.94965704  0.15944455    -0.07500
C1450       C  0.23699839  0.92168323  0.16143908    -0.08300
C1451       C  0.20667556  0.91404532  0.14020684    -0.02800
C1452       C  0.19267547  0.93593443  0.11813266     0.04000
N1453       N  0.16205638  0.92932872  0.09573081     0.66500
H1454       H  0.20249688  0.97955007  0.09722805     0.15400
H1455       H  0.24759135  0.90540376  0.17886790     0.15100
N1456       N  0.28523016  0.95697038  0.18229602     0.74200
O1457       O  0.12706061  0.93646181  0.10262165    -0.39200
O1458       O  0.17103867  0.92523866  0.06672753    -0.39200
O1459       O  0.31914323  0.94543832  0.17999130    -0.39900
O1460       O  0.27842655  0.97617990  0.20381354    -0.39900
C1461       C  0.31353688  0.68448100  0.11272504    -0.12200
C1462       C  0.29879065  0.66269131  0.13405106     0.04800
C1463       C  0.26866939  0.67102229  0.15550650    -0.07500
C1464       C  0.25166555  0.69955312  0.15336713    -0.08300
C1465       C  0.26378045  0.72063214  0.13017686    -0.02800
C1466       C  0.29649239  0.71336380  0.11070195     0.04000
N1467       N  0.31120800  0.73407114  0.08745885     0.66500
H1468       H  0.33673609  0.67843290  0.09597654     0.15400
H1469       H  0.22792967  0.70502648  0.16985268     0.15100
N1470       N  0.25467178  0.65070783  0.17952013     0.74200
O1471       O  0.34217751  0.74858951  0.09368940    -0.39200
O1472       O  0.30000559  0.73182417  0.05868231    -0.39200
O1473       O  0.26830970  0.65263203  0.20763090    -0.39900
O1474       O  0.22235579  0.63735054  0.17512696    -0.39900
C1475       C  0.20141802  0.52931981  0.89075866    -0.12200
C1476       C  0.23848847  0.52444952  0.87690033     0.04800
C1477       C  0.25513317  0.54727072  0.85748594    -0.07500
C1478       C  0.23611995  0.57493044  0.85464223    -0.08300
C1479       C  0.20175479  0.58129830  0.87194421    -0.02800
C1480       C  0.18306590  0.55765748  0.88876202     0.04000
N1481       N  0.14750938  0.56265398  0.90623626     0.66500
H1482       H  0.18790547  0.51168228  0.90512200     0.15400
H1483       H  0.25061172  0.59269833  0.84108276     0.15100
N1484       N  0.29244694  0.54356928  0.84190716     0.74200
O1485       O  0.11509406  0.55502618  0.89383951    -0.39200
O1486       O  0.14930462  0.56723249  0.93606823    -0.39200
O1487       O  0.31234677  0.03754158  0.82574402    -0.39900
O1488       O  0.32352302  0.54865756  0.85764854    -0.39900
C1489       C  0.31954835  0.80886194  0.89220386    -0.12200
C1490       C  0.30110385  0.82810256  0.86987513     0.04800
C1491       C  0.26913158  0.81702246  0.85187682    -0.07500
C1492       C  0.25332388  0.78899369  0.85901691    -0.08300
C1493       C  0.26887082  0.77113140  0.88362983    -0.02800
C1494       C  0.30384094  0.78029277  0.89904256     0.04000
N1495       N  0.32185402  0.76218604  0.92329497     0.66500
H1496       H  0.34422833  0.81696376  0.90635021     0.15400
H1497       H  0.22761892  0.78146347  0.84568208     0.15100
N1498       N  0.25197048  0.83392201  0.82631210     0.74200
O1499       O  0.35104156  0.74595011  0.91599933    -0.39200
O1500       O  0.31574289  0.76837862  0.95238997    -0.39200
O1501       O  0.25779869  0.82500556  0.79798339    -0.39900
O1502       O  0.22224181  0.85015701  0.83205421    -0.39900
C1503       C  0.13444794  0.76294759  0.98067563    -0.12200
C1504       C  0.11910695  0.73401727  0.97777331     0.04800
C1505       C  0.10319801  0.72018911  0.00566396    -0.07500
C1506       C  0.10610624  0.73450550  0.03577246    -0.08300
C1507       C  0.12316396  0.76304305  0.03865559    -0.02800
C1508       C  0.13671228  0.77738567  0.01029240     0.04000
N1509       N  0.15745975  0.80516277  0.01122188     0.66500
H1510       H  0.14750015  0.77395957  0.96004031     0.15400
H1511       H  0.09442588  0.72342840  0.05689647     0.15100
N1512       N  0.08170792  0.69270840  0.00369615     0.74200
O1513       O  0.19444655  0.80431546  0.00833178    -0.39200
O1514       O  0.13933519  0.82894819  0.00359412    -0.39200
O1515       O  0.04585989  0.69383560  0.99563285    -0.39900
O1516       O  0.09386807  0.67012946  0.01916184    -0.39900
C1517       C  0.27914193  0.62281366  0.97508152    -0.12200
C1518       C  0.24292312  0.63745683  0.97930420     0.04800
C1519       C  0.22146937  0.63308824  0.00779289    -0.07500
C1520       C  0.23630701  0.61432787  0.03155436    -0.08300
C1521       C  0.27235328  0.59969958  0.02743671    -0.02800
C1522       C  0.29386600  0.60370399  0.99887842     0.04000
N1523       N  0.32889714  0.58679434  0.99274515     0.66500
H1524       H  0.29489450  0.62486625  0.95257805     0.15400
H1525       H  0.22018679  0.61210169  0.05387969     0.15100
N1526       N  0.18427140  0.64722375  0.01290409     0.74200
O1527       O  0.32585334  0.56127707  0.97985724    -0.39200
O1528       O  0.36179121  0.59995550  0.99248550    -0.39200
O1529       O  0.15364951  0.63127225  0.01153150    -0.39900
O1530       O  0.18311569  0.67193538  0.02767365    -0.39900
C1531       C  0.68591565  0.69825062  0.11579495    -0.12200
C1532       C  0.70639226  0.67828270  0.13620194     0.04800
C1533       C  0.73995372  0.68886498  0.15270552    -0.07500
C1534       C  0.75411495  0.71766776  0.14652585    -0.08300
C1535       C  0.73590003  0.73659555  0.12402127    -0.02800
C1536       C  0.70046287  0.72728065  0.10945761     0.04000
N1537       N  0.68108043  0.74559010  0.08605070     0.66500
H1538       H  0.66043083  0.69038701  0.10242342     0.15400
H1539       H  0.78084721  0.72493929  0.15867839     0.15100
N1540       N  0.76122572  0.67020304  0.17473070     0.74200
O1541       O  0.68857431  0.74151632  0.05673434    -0.39200
O1542       O  0.65003717  0.75948357  0.09375495    -0.39200
O1543       O  0.79363820  0.65884022  0.16607449    -0.39900
O1544       O  0.75379136  0.67227879  0.20429616    -0.39900
C1545       C  0.80565759  0.97955885  0.11710876    -0.12200
C1546       C  0.76691417  0.98476255  0.12745660     0.04800
C1547       C  0.74699826  0.96176802  0.14420191    -0.07500
C1548       C  0.76521319  0.93423431  0.14945474    -0.08300
C1549       C  0.80201125  0.92751211  0.13609013    -0.02800
C1550       C  0.82305103  0.95086920  0.12050631     0.04000
N1551       N  0.86018312  0.94534262  0.10553703     0.66500
H1552       H  0.82142774  0.99715151  0.10439745     0.15400
H1553       H  0.74853269  0.91687657  0.16179790     0.15100
N1554       N  0.71688826  0.47026343  0.16528844     0.74200
O1555       O  0.86098024  0.93887117  0.07608199    -0.39200
O1556       O  0.89114731  0.95488760  0.11882911    -0.39200
O1557       O  0.68427960  0.46142672  0.15419940    -0.39900
O1558       O  0.71949721  0.47652960  0.19470189    -0.39900
C1559       C  0.62717648  0.54476824  0.00209522    -0.12200
C1560       C  0.62362627  0.52742810  0.03043411     0.04800
C1561       C  0.62955861  0.99681357  0.02430155    -0.07500
C1562       C  0.62651083  0.98509924  0.99300840    -0.08300
C1563       C  0.62496523  0.00373359  0.96557016    -0.02800
C1564       C  0.62571299  0.53190699  0.97116240     0.04000
N1565       N  0.63199722  0.55109172  0.94413418     0.66500
H1566       H  0.63300481  0.56865011  0.00374605     0.15400
H1567       H  0.62780704  0.96084419  0.99014839     0.15100
N1568       N  0.63620525  0.97627996  0.05017549     0.74200
O1569       O  0.60359598  0.56661478  0.93355066    -0.39200
O1570       O  0.66676748  0.55843160  0.93683826    -0.39200
O1571       O  0.60776538  0.96091139  0.06062616    -0.39900
O1572       O  0.67100431  0.96777080  0.05613590    -0.39900
C1573       C  0.53282076  0.54347224  0.16260167    -0.12200
C1574       C  0.55019345  0.57156710  0.15676487     0.04800
C1575       C  0.52566643  0.59725248  0.15566083    -0.07500
C1576       C  0.48465168  0.59398230  0.15643749    -0.08300
C1577       C  0.46713770  0.56544361  0.15768817    -0.02800
C1578       C  0.49173550  0.54003705  0.16255202     0.04000
N1579       N  0.47617403  0.51021320  0.16308202     0.66500
H1580       H  0.55106312  0.52341667  0.16356671     0.15400
H1581       H  0.46637367  0.61387231  0.15363413     0.15100
N1582       N  0.54170149  0.62671337  0.15205038     0.74200
O1583       O  0.46970297  0.49697689  0.13685541    -0.39200
O1584       O  0.47889086  0.49486369  0.18849649    -0.39200
O1585       O  0.54046217  0.63931270  0.12490306    -0.39900
O1586       O  0.54702913  0.64257044  0.17672219    -0.39900
C1587       C  0.88129495  0.77858023  0.97015824    -0.12200
C1588       C  0.88825774  0.74752824  0.96873839     0.04800
C1589       C  0.89628669  0.73227779  0.99815289    -0.07500
C1590       C  0.89348072  0.74745434  0.02761778    -0.08300
C1591       C  0.88365673  0.77802601  0.02913639    -0.02800
C1592       C  0.87924379  0.79388759  0.99958930     0.04000
N1593       N  0.87053035  0.82531623  0.99866161     0.66500
H1594       H  0.87548081  0.79106748  0.94829503     0.15400
H1595       H  0.89811937  0.73484388  0.04958734     0.15100
N1596       N  0.90675071  0.70116399  0.99897011     0.74200
O1597       O  0.89849323  0.84374432  0.99563583    -0.39200
O1598       O  0.83587175  0.83375893  0.99214950    -0.39200
O1599       O  0.94264637  0.69403327  0.00170265    -0.39900
O1600       O  0.88073699  0.68203768  0.00599913    -0.39900
C1601       C  0.74941333  0.80605253  0.85360426    -0.12200
C1602       C  0.74325307  0.78796046  0.88073960     0.04800
C1603       C  0.71612072  0.79749501  0.90415783    -0.07500
C1604       C  0.69847158  0.82597566  0.90125515    -0.08300
C1605       C  0.70703643  0.84504097  0.87512199    -0.02800
C1606       C  0.73113401  0.83401225  0.85025460     0.04000
N1607       N  0.73740427  0.85082436  0.82145872     0.66500
H1608       H  0.76938237  0.79855635  0.83485329     0.15400
H1609       H  0.68012652  0.83403124  0.92080587     0.15100
N1610       N  0.70900026  0.77999961  0.93232125     0.74200
O1611       O  0.77002017  0.86380115  0.81724865    -0.39200
O1612       O  0.71556271  0.84585930  0.79751456    -0.39200
O1613       O  0.72830811  0.78555400  0.95751765    -0.39900
O1614       O  0.67758304  0.76500400  0.93433120    -0.39900
C1615       C  0.79504940  0.54290328  0.88954649    -0.12200
C1616       C  0.75951730  0.53821204  0.87275657     0.04800
C1617       C  0.74513703  0.56164081  0.85260630    -0.07500
C1618       C  0.76386011  0.58936711  0.85188942    -0.08300
C1619       C  0.79721140  0.59487944  0.87052085    -0.02800
C1620       C  0.81410770  0.57102395  0.88837353     0.04000
N1621       N  0.84936342  0.57546282  0.90658821     0.66500
H1622       H  0.80725481  0.52519202  0.90440403     0.15400
H1623       H  0.75105016  0.60727792  0.83755478     0.15100
N1624       N  0.71103066  0.55807357  0.83279101     0.74200
O1625       O  0.84736624  0.58551246  0.93481610    -0.39200
O1626       O  0.88241275  0.57383034  0.89283171    -0.39200
O1627       O  0.67865944  0.56927884  0.84178022    -0.39900
O1628       O  0.71550927  0.55124823  0.80365791    -0.39900
C1629       C  0.02621655  0.66234322  0.85419302    -0.12200
C1630       C  0.04743954  0.68932252  0.85354353     0.04800
C1631       C  0.02687625  0.71640872  0.84714926    -0.07500
C1632       C  0.98565647  0.71621189  0.84463078    -0.08300
C1633       C  0.96413026  0.68974582  0.84973625    -0.02800
C1634       C  0.98502496  0.66225513  0.85269996     0.04000
N1635       N  0.96503775  0.63424687  0.85664073     0.66500
H1636       H  0.04153949  0.64121903  0.85844725     0.15400
H1637       H  0.97032933  0.73760148  0.84256546     0.15100
N1638       N  0.04640442  0.74480289  0.84797122     0.74200
O1639       O  0.96104717  0.61730129  0.83263878    -0.39200
O1640       O  0.96190262  0.62313916  0.88441691    -0.39200
O1641       O  0.05131172  0.75917727  0.82216192    -0.39900
O1642       O  0.04953732  0.75842893  0.87437269    -0.39900
C1643       C  0.74263870  0.65522871  0.03045850    -0.12200
C1644       C  0.74556129  0.62363885  0.03265867     0.04800
C1645       C  0.76005588  0.60704836  0.00666360    -0.07500
C1646       C  0.77147342  0.62207689  0.97902282    -0.08300
C1647       C  0.76912043  0.65344572  0.97696867    -0.02800
C1648       C  0.75465821  0.67028435  0.00271895     0.04000
N1649       N  0.75356789  0.70240500  0.00131405     0.66500
H1650       H  0.73109764  0.66816414  0.05042565     0.15400
H1651       H  0.78215522  0.60907703  0.95877218     0.15100
N1652       N  0.76133596  0.57498301  0.00722168     0.74200
O1653       O  0.72324703  0.71547184  0.99049073    -0.39200
O1654       O  0.78511234  0.71707816  0.00456219    -0.39200
O1655       O  0.73435403  0.56048122  0.99333688    -0.39900
O1656       O  0.79356779  0.56197894  0.01346283    -0.39900
C1657       C  0.75664808  0.77246042  0.27109802    -0.12200
C1658       C  0.72125265  0.78795840  0.27767284     0.04800
C1659       C  0.70697119  0.80831578  0.25447028    -0.07500
C1660       C  0.72792877  0.81274613  0.22576295    -0.08300
C1661       C  0.76379532  0.79762935  0.21920408    -0.02800
C1662       C  0.77781984  0.77698407  0.24240110     0.04000
N1663       N  0.81468322  0.76189485  0.23839727     0.66500
H1664       H  0.76896685  0.75751398  0.28918424     0.15400
H1665       H  0.71592118  0.82866446  0.20853432     0.15100
N1666       N  0.67285695  0.82633415  0.26050000     0.74200
O1667       O  0.84530332  0.77312157  0.25068006    -0.39200
O1668       O  0.81491560  0.73460232  0.23027995    -0.39200
O1669       O  0.67722483  0.85253112  0.27145240    -0.39900
O1670       O  0.64064742  0.81946290  0.24726464    -0.39900
C1671       C  0.72442044  0.94161538  0.72288091    -0.12200
C1672       C  0.76275892  0.95316391  0.71803692     0.04800
C1673       C  0.77975810  0.97047165  0.74266101    -0.07500
C1674       C  0.75968949  0.97392793  0.77184513    -0.08300
C1675       C  0.72207920  0.96143766  0.77698460    -0.02800
C1676       C  0.70402163  0.94570755  0.75177995     0.04000
N1677       N  0.66623351  0.93210142  0.75565179     0.66500
H1678       H  0.70999526  0.92889514  0.70404367     0.15400
H1679       H  0.77437947  0.98568731  0.79126003     0.15100
N1680       N  0.81801947  0.98337727  0.73930628     0.74200
O1681       O  0.63597333  0.94614222  0.74620010    -0.39200
O1682       O  0.66419292  0.90408302  0.76007999    -0.39200
O1683       O  0.82082977  0.01102425  0.73293316    -0.39900
O1684       O  0.84739501  0.96974778  0.75103542    -0.39900
C1685       C  0.78431759  0.85786992  0.51342918    -0.12200
C1686       C  0.75835284  0.87527386  0.53220040     0.04800
C1687       C  0.71807859  0.87599440  0.52413088    -0.07500
C1688       C  0.70508842  0.86040419  0.49728285    -0.08300
C1689       C  0.73094140  0.84279935  0.47879082    -0.02800
C1690       C  0.77105439  0.84146676  0.48724552     0.04000
N1691       N  0.79859451  0.82312164  0.47020601     0.66500
H1692       H  0.81553307  0.85647198  0.51926068     0.15400
H1693       H  0.67417723  0.86253595  0.49071496     0.15100
N1694       N  0.68957889  0.89103530  0.54356027     0.74200
O1695       O  0.82034067  0.83503983  0.44921905    -0.39200
O1696       O  0.80826623  0.79792833  0.48181488    -0.39200
O1697       O  0.67590135  0.91600921  0.53433455    -0.39900
O1698       O  0.67081217  0.87604653  0.56421914    -0.39900
C1699       C  0.26598548  0.78442538  0.23380834    -0.12200
C1700       C  0.22634589  0.79342456  0.22997471     0.04800
C1701       C  0.20555904  0.80346711  0.25711621    -0.07500
C1702       C  0.22526916  0.80603652  0.28667109    -0.08300
C1703       C  0.26555889  0.79856759  0.29011045    -0.02800
C1704       C  0.28558331  0.78671156  0.26343013     0.04000
N1705       N  0.32644618  0.77909674  0.26516084     0.66500
H1706       H  0.28244872  0.77650599  0.21315911     0.15400
H1707       H  0.20907932  0.81480990  0.30705609     0.15100
N1708       N  0.16547844  0.81319290  0.25477309     0.74200
O1709       O  0.33621725  0.75198255  0.26930528    -0.39200
O1710       O  0.35150782  0.79730289  0.25416677    -0.39200
O1711       O  0.13863043  0.79655528  0.26579869    -0.39900
O1712       O  0.15820785  0.84065250  0.24986608    -0.39900
C1713       C  0.47772412  0.84386766  0.35498759    -0.12200
C1714       C  0.45498001  0.81756803  0.35571406     0.04800
C1715       C  0.47411132  0.78965528  0.35100159    -0.07500
C1716       C  0.51528593  0.78845731  0.34895191    -0.08300
C1717       C  0.53842346  0.81446286  0.35216491    -0.02800
C1718       C  0.51897157  0.84263404  0.35313256     0.04000
N1719       N  0.54046388  0.87018539  0.35352529     0.66500
H1720       H  0.46350165  0.86562370  0.35769563     0.15400
H1721       H  0.52922044  0.76647536  0.34785758     0.15100
N1722       N  0.45294065  0.76195763  0.35236802     0.74200
O1723       O  0.54646898  0.88378802  0.32739351    -0.39200
O1724       O  0.54405264  0.88432519  0.37956896    -0.39200
O1725       O  0.44627918  0.74780394  0.32674389    -0.39900
O1726       O  0.44960676  0.74849967  0.37891554    -0.39900
C1727       C  0.23556230  0.93538999  0.73522735    -0.12200
C1728       C  0.21736574  0.96292830  0.72817240     0.04800
C1729       C  0.22236923  0.98687153  0.75004221    -0.07500
C1730       C  0.24634095  0.98294884  0.77754965    -0.08300
C1731       C  0.26520878  0.95536114  0.78403468    -0.02800
C1732       C  0.25895557  0.93138970  0.76250791     0.04000
N1733       N  0.27552628  0.90239224  0.76808985     0.66500
H1734       H  0.23252795  0.91672596  0.71864068     0.15400
H1735       H  0.24909601  0.00129600  0.79451933     0.15100
N1736       N  0.20359363  0.01520234  0.74486401     0.74200
O1737       O  0.25283815  0.88186019  0.77751313    -0.39200
O1738       O  0.30705674  0.89526870  0.75395834    -0.39200
O1739       O  0.17180447  0.02077703  0.75940499    -0.39900
O1740       O  0.22365725  0.03676472  0.73402392    -0.39900
C1741       C  0.01563061  0.95941466  0.66414639    -0.12200
C1742       C  0.03920888  0.93639143  0.65117939     0.04800
C1743       C  0.02061687  0.90883048  0.64337887    -0.07500
C1744       C  0.97948289  0.90649908  0.64462771    -0.08300
C1745       C  0.95550403  0.93101289  0.65320702    -0.02800
C1746       C  0.97431213  0.95695970  0.66545503     0.04000
N1747       N  0.95218416  0.98171870  0.67774661     0.66500
H1748       H  0.02905729  0.98038820  0.67165016     0.15400
H1749       H  0.96613973  0.88573739  0.63637024     0.15100
N1750       N  0.04238253  0.88353639  0.63178845     0.74200
O1751       O  0.94668302  0.98348895  0.70762102    -0.39200
O1752       O  0.94792040  0.00496434  0.66067295    -0.39200
O1753       O  0.04847366  0.86154454  0.65034032    -0.39900
O1754       O  0.04574088  0.87979672  0.60190708    -0.39900
C1755       C  0.27718325  0.87707980  0.50313699    -0.12200
C1756       C  0.25743410  0.87958156  0.47386093     0.04800
C1757       C  0.22554011  0.89973389  0.47068188    -0.07500
C1758       C  0.21367520  0.91667492  0.49710580    -0.08300
C1759       C  0.23323830  0.91405843  0.52667316    -0.02800
C1760       C  0.26545467  0.89384631  0.52954737     0.04000
N1761       N  0.28544686  0.88879493  0.55932489     0.66500
H1762       H  0.30216750  0.86181493  0.50553128     0.15400
H1763       H  0.18877466  0.93203525  0.49443613     0.15100
N1764       N  0.20628534  0.90443197  0.44056699     0.74200
O1765       O  0.27442908  0.86751669  0.57719861    -0.39200
O1766       O  0.31929648  0.89983102  0.56342634    -0.39200
O1767       O  0.17321995  0.89233419  0.43569294    -0.39900
O1768       O  0.21646275  0.92646305  0.42337506    -0.39900
C1769       C  0.29899794  0.55217219  0.25338112    -0.12200
C1770       C  0.27461453  0.55085807  0.22631376     0.04800
C1771       C  0.23293817  0.55233349  0.23101362    -0.07500
C1772       C  0.21713565  0.55549478  0.26184966    -0.08300
C1773       C  0.24153031  0.55810969  0.28857614    -0.02800
C1774       C  0.28301420  0.55608099  0.28422794     0.04000
N1775       N  0.30938680  0.55688897  0.31098676     0.66500
H1776       H  0.33080451  0.55084501  0.25056784     0.15400
H1777       H  0.18532249  0.55670299  0.26479574     0.15100
N1778       N  0.20581341  0.55064884  0.20479427     0.74200
O1779       O  0.32076293  0.53244717  0.32338329    -0.39200
O1780       O  0.32904961  0.58042592  0.31609222    -0.39200
O1781       O  0.18829088  0.52618165  0.19950535    -0.39900
O1782       O  0.19142384  0.57467932  0.19359004    -0.39900
C1783       C  0.11839973  0.54700822  0.50399848    -0.12200
C1784       C  0.12013439  0.52900196  0.47607562     0.04800
C1785       C  0.11295331  0.00095422  0.48057728    -0.07500
C1786       C  0.11039086  0.98991301  0.51224112    -0.08300
C1787       C  0.11716124  0.00835255  0.53925493    -0.02800
C1788       C  0.11619719  0.53462839  0.53506876     0.04000
N1789       N  0.11662141  0.55453735  0.56190203     0.66500
H1790       H  0.12046680  0.57124776  0.50200866     0.15400
H1791       H  0.10449107  0.96617028  0.51550184     0.15100
N1792       N  0.10620319  0.98062026  0.45472631     0.74200
O1793       O  0.14922381  0.56407386  0.57230536    -0.39200
O1794       O  0.08536742  0.56829545  0.56933487    -0.39200
O1795       O  0.13288166  0.96205726  0.44738317    -0.39900
O1796       O  0.07117120  0.97545602  0.44616155    -0.39900
C1797       C  0.27660036  0.94212597  0.35150397    -0.12200
C1798       C  0.30593889  0.93218351  0.37262618     0.04800
C1799       C  0.32123231  0.95269509  0.39546936    -0.07500
C1800       C  0.30468724  0.98161170  0.39827450    -0.08300
C1801       C  0.27262845  0.99018843  0.37917693    -0.02800
C1802       C  0.25977186  0.97061848  0.35460877     0.04000
N1803       N  0.22843753  0.97875886  0.33330507     0.66500
H1804       H  0.26453634  0.92677276  0.33379206     0.15400
H1805       H  0.30407372  0.49396099  0.42532803     0.15100
N1806       N  0.35004423  0.94350562  0.41852886     0.74200
O1807       O  0.23678487  0.98622198  0.30489498    -0.39200
O1808       O  0.19389351  0.97007955  0.33954229    -0.39200
O1809       O  0.38507545  0.95250352  0.41541971    -0.39900
O1810       O  0.33866706  0.93419914  0.44558893    -0.39900
C1811       C  0.21448248  0.73351420  0.36470308    -0.12200
C1812       C  0.22950240  0.74265747  0.39460152     0.04800
C1813       C  0.22879744  0.72221197  0.42048912    -0.07500
C1814       C  0.21553366  0.69287896  0.41562755    -0.08300
C1815       C  0.20365439  0.68297402  0.38520235    -0.02800
C1816       C  0.20207609  0.70375332  0.35966386     0.04000
N1817       N  0.19178275  0.69446867  0.32798813     0.66500
H1818       H  0.21584528  0.74875173  0.34433141     0.15400
H1819       H  0.21657988  0.67715953  0.43559102     0.15100
N1820       N  0.24315556  0.73037909  0.45151613     0.74200
O1821       O  0.15775597  0.70035859  0.31737660    -0.39200
O1822       O  0.21890699  0.68805729  0.30845337    -0.39200
O1823       O  0.21869500  0.73743834  0.47301699    -0.39900
O1824       O  0.27757322  0.72259853  0.45965419    -0.39900
C1825       C  0.27733878  0.69937677  0.78573502    -0.12200
C1826       C  0.23771364  0.70843242  0.78982508     0.04800
C1827       C  0.21838134  0.72249139  0.76385335    -0.07500
C1828       C  0.23833870  0.72634168  0.73467567    -0.08300
C1829       C  0.27757093  0.71656472  0.73038372    -0.02800
C1830       C  0.29723215  0.70319942  0.75651770     0.04000
N1831       N  0.33610509  0.69120426  0.75316561     0.66500
H1832       H  0.29317124  0.68873410  0.80547677     0.15400
H1833       H  0.22225046  0.73610734  0.71456196     0.15100
N1834       N  0.17772227  0.73074782  0.76565943     0.74200
O1835       O  0.36512113  0.70632547  0.76295163    -0.39200
O1836       O  0.34043386  0.66344702  0.74806850    -0.39200
O1837       O  0.16847626  0.75822327  0.76645741    -0.39900
O1838       O  0.15193132  0.71173063  0.75783417    -0.39900
C1839       C  0.30476534  0.58067488  0.61018173    -0.12200
C1840       C  0.29207482  0.60111984  0.63388379     0.04800
C1841       C  0.26365152  0.59135889  0.65626368    -0.07500
C1842       C  0.24661592  0.56301471  0.65302023    -0.08300
C1843       C  0.25737424  0.54325457  0.62824157    -0.02800
C1844       C  0.28783172  0.55195738  0.60721370     0.04000
N1845       N  0.29081167  0.03389711  0.57548484     0.66500
H1846       H  0.32628904  0.58766304  0.59240286     0.15400
H1847       H  0.22391677  0.55658386  0.67004405     0.15100
N1848       N  0.25127455  0.60993392  0.68232580     0.74200
O1849       O  0.26871128  0.03792545  0.55145122    -0.39200
O1850       O  0.32351977  0.02078408  0.57177157    -0.39200
O1851       O  0.21754377  0.62196769  0.68138012    -0.39900
O1852       O  0.26880430  0.60759706  0.70895253    -0.39900
C1853       C  0.21855773  0.80077324  0.60328292    -0.12200
C1854       C  0.24088711  0.79221235  0.63009801     0.04800
C1855       C  0.24310888  0.81225218  0.65648463    -0.07500
C1856       C  0.22688943  0.84104905  0.65424078    -0.08300
C1857       C  0.20728731  0.85061261  0.62651722    -0.02800
C1858       C  0.20152184  0.82958066  0.60128949     0.04000
N1859       N  0.18094264  0.83759172  0.57253502     0.66500
H1860       H  0.21603648  0.78565227  0.58297917     0.15400
H1861       H  0.23054855  0.85636120  0.67427839     0.15100
N1862       N  0.26188092  0.80386408  0.68592534     0.74200
O1863       O  0.20037863  0.84416955  0.54771973    -0.39200
O1864       O  0.14514782  0.83042208  0.56966036    -0.39200
O1865       O  0.29624959  0.81324173  0.69166528    -0.39900
O1866       O  0.24078682  0.79502366  0.70897409    -0.39900
C1867       C  0.37213624  0.80012689  0.50908693    -0.12200
C1868       C  0.38167591  0.78241418  0.48218238     0.04800
C1869       C  0.39685105  0.75328463  0.48782894    -0.07500
C1870       C  0.39866319  0.74182667  0.51940611    -0.08300
C1871       C  0.38596923  0.75883547  0.54612200    -0.02800
C1872       C  0.37413256  0.78888956  0.54047600     0.04000
N1873       N  0.36260671  0.80830531  0.56605565     0.66500
H1874       H  0.36122180  0.82287710  0.50588913     0.15400
H1875       H  0.40892388  0.71889910  0.52278132     0.15100
N1876       N  0.41139453  0.73526509  0.46209806     0.74200
O1877       O  0.38661088  0.82786387  0.57586292    -0.39200
O1878       O  0.32642324  0.81140398  0.57227587    -0.39200
O1879       O  0.44794266  0.73495254  0.45644000    -0.39900
O1880       O  0.39000605  0.71469679  0.45078477    -0.39900
C1881       C  0.28262291  0.62543730  0.48467767    -0.12200
C1882       C  0.24169588  0.62338331  0.48140327     0.04800
C1883       C  0.21724027  0.63892060  0.50338415    -0.07500
C1884       C  0.23401081  0.65689871  0.52691627    -0.08300
C1885       C  0.27494633  0.65955954  0.52996511    -0.02800
C1886       C  0.29949442  0.64317275  0.50862228     0.04000
N1887       N  0.34151508  0.64365108  0.51105514     0.66500
H1888       H  0.30189792  0.61381888  0.46795122     0.15400
H1889       H  0.21441403  0.66850677  0.54339210     0.15100
N1890       N  0.17520265  0.63659115  0.50255198     0.74200
O1891       O  0.35881414  0.62308898  0.52659112    -0.39200
O1892       O  0.36094218  0.65908843  0.49120649    -0.39200
O1893       O  0.15829191  0.61973145  0.52261103    -0.39900
O1894       O  0.15543906  0.65697849  0.48879792    -0.39900
C1895       C  0.74030147  0.53314717  0.27722635    -0.12200
C1896       C  0.78050348  0.54059817  0.28107885     0.04800
C1897       C  0.80143638  0.55063643  0.25398867    -0.07500
C1898       C  0.78158731  0.55477851  0.22465382    -0.08300
C1899       C  0.74096307  0.54855012  0.22114438    -0.02800
C1900       C  0.72066299  0.53660340  0.24769995     0.04000
N1901       N  0.67973049  0.52933702  0.24579349     0.66500
H1902       H  0.72358852  0.52501743  0.29759474     0.15400
H1903       H  0.79824629  0.56315680  0.20436633     0.15100
N1904       N  0.84230090  0.55806775  0.25602125     0.74200
O1905       O  0.66972966  0.50225398  0.24233009    -0.39200
O1906       O  0.65464893  0.54800387  0.25595231    -0.39200
O1907       O  0.86759007  0.53969921  0.24556986    -0.39900
O1908       O  0.85217780  0.58500099  0.26080817    -0.39900
C1909       C  0.79253251  0.70856345  0.37315606    -0.12200
C1910       C  0.75577739  0.71240500  0.38809015     0.04800
C1911       C  0.73669468  0.68719472  0.40133213    -0.07500
C1912       C  0.75339647  0.65872688  0.39817763    -0.08300
C1913       C  0.78924838  0.65449811  0.38213417    -0.02800
C1914       C  0.80953675  0.67979186  0.37023397     0.04000
N1915       N  0.84557790  0.67643167  0.35298390     0.66500
H1916       H  0.80699755  0.72770103  0.36210389     0.15400
H1917       H  0.73822950  0.63963198  0.40874591     0.15100
N1918       N  0.70033188  0.69017123  0.41830063     0.74200
O1919       O  0.84438468  0.67295954  0.32295930    -0.39200
O1920       O  0.87755554  0.68408356  0.36608737    -0.39200
O1921       O  0.66886054  0.68118699  0.40534357    -0.39900
O1922       O  0.70124092  0.69414017  0.44825634    -0.39900
C1923       C  0.72043844  0.95425277  0.39680278    -0.12200
C1924       C  0.74983963  0.96045373  0.37424098     0.04800
C1925       C  0.75629046  0.93955057  0.34908296    -0.07500
C1926       C  0.73688850  0.91194942  0.34926162    -0.08300
C1927       C  0.71013719  0.90454655  0.37349569    -0.02800
C1928       C  0.70031326  0.92677357  0.39652780     0.04000
N1929       N  0.67165994  0.92136537  0.42091381     0.66500
H1930       H  0.71409257  0.97034637  0.41573507     0.15400
H1931       H  0.74383530  0.89571198  0.33060010     0.15100
N1932       N  0.78214115  0.94592880  0.32288863     0.74200
O1933       O  0.68298032  0.91325870  0.44846278    -0.39200
O1934       O  0.63729324  0.93183365  0.41741113    -0.39200
O1935       O  0.81521693  0.93291173  0.32166916    -0.39900
O1936       O  0.76782622  0.95703374  0.29751575    -0.39900
C1937       C  0.88732238  0.96809132  0.46890448    -0.12200
C1938       C  0.89049327  0.49968874  0.46557899     0.04800
C1939       C  0.90240142  0.51420081  0.49441851    -0.07500
C1940       C  0.89699321  0.50007914  0.52447655    -0.08300
C1941       C  0.88171506  0.96938582  0.52781795    -0.02800
C1942       C  0.88320276  0.95301255  0.49851504     0.04000
N1943       N  0.87780301  0.92120618  0.49777776     0.66500
H1944       H  0.88702528  0.95489396  0.44704813     0.15400
H1945       H  0.90537348  0.51203629  0.54611791     0.15100
N1946       N  0.91910475  0.54358749  0.49404542     0.74200
O1947       O  0.84373682  0.91095457  0.49261153    -0.39200
O1948       O  0.90732925  0.90440210  0.49338586    -0.39200
O1949       O  0.89830836  0.56550476  0.50311408    -0.39900
O1950       O  0.95613889  0.54621589  0.49381892    -0.39900
C1951       C  0.98181994  0.59545835  0.35724507    -0.12200
C1952       C  0.96614414  0.56675852  0.35160926     0.04800
C1953       C  0.99230904  0.54333249  0.34281987    -0.07500
C1954       C  0.03306907  0.54828293  0.34332627    -0.08300
C1955       C  0.04872672  0.57599271  0.35306564    -0.02800
C1956       C  0.02248353  0.60022588  0.35836089     0.04000
N1957       N  0.03634668  0.62952673  0.36652402     0.66500
H1958       H  0.96252741  0.61414670  0.36306821     0.15400
H1959       H  0.05252144  0.52935639  0.33885658     0.15100
N1960       N  0.97854442  0.51378637  0.33559817     0.74200
O1961       O  0.04135968  0.64854993  0.34442002    -0.39200
O1962       O  0.03293275  0.63857672  0.39506631    -0.39200
O1963       O  0.97811032  0.50517626  0.30678142    -0.39900
O1964       O  0.97670483  0.49444719  0.35775063    -0.39900
C1965       C  0.73719337  0.72708143  0.73475404    -0.12200
C1966       C  0.73397091  0.69799312  0.72190413     0.04800
C1967       C  0.75253788  0.67412621  0.73892222    -0.07500
C1968       C  0.77319250  0.67957123  0.76741819    -0.08300
C1969       C  0.77673110  0.70847565  0.78007364    -0.02800
C1970       C  0.75825902  0.73247545  0.76345714     0.04000
N1971       N  0.75911374  0.76226171  0.77593789     0.66500
H1972       H  0.72406016  0.74597406  0.72207616     0.15400
H1973       H  0.78595888  0.66063747  0.78033367     0.15100
N1974       N  0.75133836  0.64395855  0.72760612     0.74200
O1975       O  0.78595102  0.77988278  0.76681580    -0.39200
O1976       O  0.72809570  0.77303786  0.78805361    -0.39200
O1977       O  0.78255384  0.63261374  0.71646839    -0.39900
O1978       O  0.72415184  0.62685428  0.73718123    -0.39900
C1979       C  0.61711271  0.75223402  0.52630065    -0.12200
C1980       C  0.61948605  0.72085153  0.52890812     0.04800
C1981       C  0.61740357  0.70411872  0.49981409    -0.07500
C1982       C  0.61610161  0.71879488  0.46976685    -0.08300
C1983       C  0.61563319  0.75021015  0.46716465    -0.02800
C1984       C  0.61460584  0.76687699  0.49629855     0.04000
N1985       N  0.61275624  0.79891640  0.49630187     0.66500
H1986       H  0.61800127  0.76585152  0.54783137     0.15400
H1987       H  0.61603430  0.70528715  0.44815840     0.15100
N1988       N  0.61729459  0.67205870  0.49991234     0.74200
O1989       O  0.57946656  0.81154593  0.49443222    -0.39200
O1990       O  0.64130420  0.81336912  0.50791938    -0.39200
O1991       O  0.58500889  0.65846155  0.49623976    -0.39900
O1992       O  0.64916535  0.65816145  0.49495158    -0.39900
C1993       C  0.81772003  0.80113326  0.61825706    -0.12200
C1994       C  0.79789624  0.82161440  0.63830308     0.04800
C1995       C  0.76402523  0.81175023  0.65484810    -0.07500
C1996       C  0.74851915  0.78331578  0.64862116    -0.08300
C1997       C  0.76608406  0.76384902  0.62633243    -0.02800
C1998       C  0.80216663  0.77232227  0.61222583     0.04000
N1999       N  0.82144343  0.75329324  0.58961990     0.66500
H2000       H  0.84349193  0.80841125  0.60497191     0.15400
H2001       H  0.72156600  0.77669254  0.66074136     0.15100
N2002       N  0.74395801  0.83086567  0.67705876     0.74200
O2003       O  0.81397328  0.75647804  0.56013474    -0.39200
O2004       O  0.85225614  0.73937690  0.59802864    -0.39200
O2005       O  0.71262119  0.84400028  0.66846426    -0.39900
O2006       O  0.75176860  0.82859763  0.70658102    -0.39900
C2007       C  0.75381802  0.53296424  0.64345620    -0.12200
C2008       C  0.73310030  0.51289944  0.62399067     0.04800
C2009       C  0.69504892  0.52100651  0.61324314    -0.07500
C2010       C  0.68047715  0.55018611  0.61944279    -0.08300
C2011       C  0.70322393  0.57123763  0.63652311    -0.02800
C2012       C  0.73927159  0.56154666  0.65004548     0.04000
N2013       N  0.76168748  0.58038850  0.67076738     0.66500
H2014       H  0.78230240  0.52654032  0.65336729     0.15400
H2015       H  0.65262225  0.55705410  0.60880431     0.15100
N2016       N  0.67205670  0.50086851  0.59438029     0.74200
O2017       O  0.75857345  0.57633720  0.70061778    -0.39200
O2018       O  0.79220526  0.59301060  0.65995652    -0.39200
O2019       O  0.64307211  0.48776518  0.60711331    -0.39900
O2020       O  0.67451663  0.50195752  0.56419775    -0.39900
C2021       C  0.52984156  0.70995825  0.66254209    -0.12200
C2022       C  0.54497148  0.68129357  0.65546172     0.04800
C2023       C  0.51830594  0.65699406  0.65365865    -0.07500
C2024       C  0.47764262  0.66234633  0.65527032    -0.08300
C2025       C  0.46236728  0.69162712  0.65814615    -0.02800
C2026       C  0.48915566  0.71542501  0.66366550     0.04000
N2027       N  0.47600405  0.74571986  0.66770409     0.66500
H2028       H  0.54960699  0.72902940  0.66449514     0.15400
H2029       H  0.45786756  0.64342719  0.65211493     0.15100
N2030       N  0.53167956  0.62684320  0.64906106     0.74200
O2031       O  0.47336226  0.75635458  0.69565342    -0.39200
O2032       O  0.47672468  0.76345512  0.64402939    -0.39200
O2033       O  0.53405938  0.60961881  0.67309060    -0.39900
O2034       O  0.52989712  0.61549933  0.62137908    -0.39900
C2035       C  0.77936471  0.63264140  0.52360987    -0.12200
C2036       C  0.74133095  0.62451908  0.53306488     0.04800
C2037       C  0.72235573  0.60019891  0.51731742    -0.07500
C2038       C  0.74152662  0.58515587  0.49266277    -0.08300
C2039       C  0.77919389  0.59365219  0.48288979    -0.02800
C2040       C  0.79839418  0.61764788  0.49876620     0.04000
N2041       N  0.83607214  0.62852317  0.48883987     0.66500
H2042       H  0.79447573  0.65113566  0.53523138     0.15400
H2043       H  0.72637583  0.56687392  0.48066806     0.15100
N2044       N  0.68376617  0.59011954  0.52586906     0.74200
O2045       O  0.83757223  0.64927925  0.46819441    -0.39200
O2046       O  0.86553675  0.62401291  0.50675742    -0.39200
O2047       O  0.65519873  0.59574177  0.50734558    -0.39900
O2048       O  0.68036356  0.56934867  0.54630888    -0.39900
loop_ 
_geom_bond_atom_site_label_1 
_geom_bond_atom_site_label_2 
_geom_bond_distance 
_geom_bond_site_symmetry_2 
_ccdc_geom_bond_type 
Fe1          O17   2.074       .  S
Fe1           O7   2.141       .  S
Fe1          O14   2.124       .  S
Fe1           O6   2.050       .  S
Fe1          O12   1.943       .  S
Fe2           O5   2.070       .  S
Fe2           O9   2.066       .  S
Fe2          O13   2.068       .  S
Fe2          O18   2.041       .  S
Fe2          O12   1.964       .  S
Fe3          O21   2.070       .  S
Fe3           O8   2.067       .  S
Fe3          O15   2.041       .  S
Fe3           O4   2.107       .  S
Fe3          O12   1.956       .  S
O4           C11   1.269       .  A
O5           C19   1.273       .  A
O6           C11   1.262       .  A
O7           C10   1.290       .  A
O8           C20   1.277       .  A
O9           C22   1.265       .  A
C10          O15   1.271       .  A
C10         C942   1.490       .  S
C11         C973   1.489       .  S
O13          C16   1.272       .  A
O14          C16   1.286       .  A
C16         C956   1.509       .  S
O17          C22   1.270       .  A
O18          C20   1.263       .  A
C19          O21   1.271       .  A
C19         C987   1.483       .  S
C20        C1012   1.472       .  S
C22         C998   1.493       .  S
Fe23         O39   2.107   1_545  S
Fe23         O29   2.040   1_545  S
Fe23         O36   2.073       .  S
Fe23         O28   2.112       .  S
Fe23         O34   1.959       .  S
Fe24         O27   2.016       .  S
Fe24         O31   2.094       .  S
Fe24         O35   2.038       .  S
Fe24         O40   2.076       .  S
Fe24         O34   1.963       .  S
Fe25         O43   2.072       .  S
Fe25         O30   2.055       .  S
Fe25         O37   2.080       .  S
Fe25         O26   2.070       .  S
Fe25         O34   1.945       .  S
O26          C33   1.278       .  A
O27          C41   1.258       .  A
O28          C33   1.290       .  A
O29          C32   1.256       .  A
O30          C42   1.273       .  A
O31          C44   1.280       .  A
C32          O37   1.267   1_565  A
C32        C1924   1.486       .  S
C33         C872   1.487       .  S
O35          C38   1.259       .  A
O36          C38   1.261       .  A
C38         C928   1.487       .  S
O39          C44   1.287   1_565  A
O40          C42   1.271       .  A
C41          O43   1.272       .  A
C41        C1015   1.469       .  S
C42         C889   1.495       .  S
C44         C914   1.513   1_545  S
Fe45         O61   2.098       .  S
Fe45         O51   2.048       .  S
Fe45         O58   2.082       .  S
Fe45         O50   2.111       .  S
Fe45         O56   1.947       .  S
Fe46         O49   2.038       .  S
Fe46         O53   2.087       .  S
Fe46         O57   2.057       .  S
Fe46         O62   2.079       .  S
Fe46         O56   1.952       .  S
Fe47         O65   2.069       .  S
Fe47         O52   2.067       .  S
Fe47         O59   2.089       .  S
Fe47         O48   2.067       .  S
Fe47         O56   1.944       .  S
O48          C55   1.275       .  A
O49          C63   1.263       .  A
O50          C55   1.288       .  A
O51          C54   1.261       .  A
O52          C64   1.272       .  A
O53          C66   1.277       .  A
C54          O59   1.272       .  A
C54         C830   1.487       .  S
C55         C805   1.491       .  S
O57          C60   1.265       .  A
O58          C60   1.267       .  A
C60        C1001   1.494       .  S
O61          C66   1.281       .  A
O62          C64   1.274       .  A
C63          O65   1.273       .  A
C63         C861   1.479       .  S
C64         C816   1.485       .  S
C66         C847   1.504       .  S
Fe67         O83   2.062       .  S
Fe67         O73   2.131       .  S
Fe67         O80   2.133       .  S
Fe67         O72   2.032       .  S
Fe67         O78   1.944       .  S
Fe68         O71   2.072       .  S
Fe68         O75   2.055       .  S
Fe68         O79   2.049       .  S
Fe68         O84   2.050       .  S
Fe68         O78   1.956       .  S
Fe69         O87   2.087       .  S
Fe69         O74   2.064       .  S
Fe69         O81   2.037       .  S
Fe69         O70   2.099       .  S
Fe69         O78   1.958       .  S
O70          C77   1.268       .  A
O71          C85   1.269       .  A
O72          C77   1.257       .  A
O73          C76   1.291       .  A
O74          C86   1.277       .  A
O75          C88   1.265       .  A
C76          O81   1.273       .  A
C76         C749   1.483       .  S
C77        C1801   1.478   1_545  S
O79          C82   1.270       .  A
O80          C82   1.284       .  A
C82         C760   1.511       .  S
O83          C88   1.267       .  A
O84          C86   1.267       .  A
C85          O87   1.273       .  A
C85         C791   1.480       .  S
C86         C858   1.475       .  S
C88         C931   1.484       .  S
Fe89        O105   2.081       .  S
Fe89         O95   2.120       .  S
Fe89        O102   2.116       .  S
Fe89         O94   2.034       .  S
Fe89        O100   1.970       .  S
Fe90         O93   2.048       .  S
Fe90         O97   2.056       .  S
Fe90        O101   2.057       .  S
Fe90        O106   2.035       .  S
Fe90        O100   1.978       .  S
Fe91        O109   2.086       .  S
Fe91         O96   2.053       .  S
Fe91        O103   2.051       .  S
Fe91         O92   2.097       .  S
Fe91        O100   1.971       .  S
O92          C99   1.268       .  A
O93         C107   1.266       .  A
O94          C99   1.260       .  A
O95          C98   1.287       .  A
O96         C108   1.267       .  A
O97         C110   1.261       .  A
C98         O103   1.274       .  A
C98         C704   1.488       .  S
C99        C1843   1.489       .  S
O101        C104   1.272       .  A
O102        C104   1.283       .  A
C104        C763   1.509       .  S
O105        C110   1.268       .  A
O106        C108   1.264       .  A
C107        O109   1.275       .  A
C107        C833   1.474       .  S
C108        C735   1.467       .  S
C110        C718   1.490       .  S
Fe111       O127   2.128       .  S
Fe111       O117   2.050       .  S
Fe111       O124   2.090       .  S
Fe111       O116   2.151       .  S
Fe111       O122   1.966       .  S
Fe112       O115   2.044       .  S
Fe112       O119   2.035       .  S
Fe112       O123   2.058       .  S
Fe112       O128   2.057       .  S
Fe112       O122   1.957       .  S
Fe113       O131   2.066       .  S
Fe113       O118   2.085       .  S
Fe113       O125   2.093       .  S
Fe113       O114   2.044       .  S
Fe113       O122   1.961       .  S
O114        C121   1.273       .  A
O115        C129   1.269       .  A
O116        C121   1.289       .  A
O117        C120   1.263       .  A
O118        C130   1.273       .  A
O119        C132   1.265       .  A
C120        O125   1.270       .  A
C120        C788   1.478       .  S
C121        C679   1.513       .  S
O123        C126   1.269       .  A
O124        C126   1.274       .  A
C126        C690   1.497       .  S
O127        C132   1.281       .  A
O128        C130   1.267       .  A
C129        O131   1.272       .  A
C129        C732   1.470       .  S
C130        C774   1.480       .  S
C132        C844   1.506       .  S
Fe133       O149   2.120       .  S
Fe133       O139   2.043       .  S
Fe133       O146   2.073       .  S
Fe133       O138   2.150       .  S
Fe133       O144   1.946       .  S
Fe134       O137   2.044       .  S
Fe134       O141   2.059       .  S
Fe134       O145   2.081       .  S
Fe134       O150   2.077       .  S
Fe134       O144   1.948       .  S
Fe135       O153   2.060       .  S
Fe135       O140   2.078       .  S
Fe135       O147   2.106       .  S
Fe135       O136   2.030       .  S
Fe135       O144   1.959       .  S
O136        C143   1.272       .  A
O137        C151   1.270       .  A
O138        C143   1.291       .  A
O139        C142   1.259       .  A
O140        C152   1.271       .  A
O141        C154   1.268       .  A
C142        O147   1.267       .  A
C142       C2008   1.480       .  S
C143        C648   1.498       .  S
O145        C148   1.274       .  A
O146        C148   1.271       .  A
C148        C721   1.491       .  S
O149        C154   1.282       .  A
O150        C152   1.274       .  A
C151        O153   1.275       .  A
C151        C662   1.467       .  S
C152        C970   1.488       .  S
C154        C917   1.506       .  S
Fe155       O171   2.080       .  S
Fe155       O161   2.111       .  S
Fe155       O168   2.108       .  S
Fe155       O160   2.043       .  S
Fe155       O166   1.935       .  S
Fe156       O159   2.077       .  S
Fe156       O163   2.068       .  S
Fe156       O167   2.074       .  S
Fe156       O172   2.035       .  S
Fe156       O166   1.956       .  S
Fe157       O175   2.076       .  S
Fe157       O162   2.059       .  S
Fe157       O169   2.073       .  S
Fe157       O158   2.095       .  S
Fe157       O166   1.947       .  S
O158        C165   1.273       .  A
O159        C173   1.272       .  A
O160        C165   1.262       .  A
O161        C164   1.285       .  A
O162        C174   1.267       .  A
O163        C176   1.270       .  A
C164        O169   1.274       .  A
C164        C634   1.492       .  S
C165        C886   1.489       .  S
O167        C170   1.268       .  A
O168        C170   1.279       .  A
C170        C959   1.512       .  S
O171        C176   1.273       .  A
O172        C174   1.264       .  A
C173        O175   1.278       .  A
C173        C903   1.485       .  S
C174        C665   1.471       .  S
C176        C693   1.497       .  S
Fe177       O193   2.079       .  S
Fe177       O183   2.133       .  S
Fe177       O190   2.125       .  S
Fe177       O182   2.042       .  S
Fe177       O188   1.960       .  S
Fe178       O181   2.051       .  S
Fe178       O185   2.040       .  S
Fe178       O189   2.053       .  S
Fe178       O194   2.029       .  S
Fe178       O188   1.981       .  S
Fe179       O197   2.088       .  S
Fe179       O184   2.056       .  S
Fe179       O191   2.050       .  S
Fe179       O180   2.096       .  S
Fe179       O188   1.964       .  S
O180        C187   1.268       .  A
O181        C195   1.269       .  A
O182        C187   1.263       .  A
O183        C186   1.288       .  A
O184        C196   1.265       .  A
O185        C198   1.259       .  A
C186        O191   1.274       .  A
C186        C945   1.499       .  S
C187        C578   1.493       .  S
O189        C192   1.270       .  A
O190        C192   1.288       .  A
C192        C564   1.503       .  S
O193        C198   1.267       .  A
O194        C196   1.259       .  A
C195        O197   1.277       .  A
C195        C595   1.476       .  S
C196        C623   1.448       .  S
C198        C609   1.487       .  S
Fe199       O215   2.127       .  S
Fe199       O205   2.031       .  S
Fe199       O212   2.073       .  S
Fe199       O204   2.148       .  S
Fe199       O210   1.947       .  S
Fe200       O203   2.052       .  S
Fe200       O207   2.056       .  S
Fe200       O211   2.068       .  S
Fe200       O216   2.065       .  S
Fe200       O210   1.946       .  S
Fe201       O219   2.068       .  S
Fe201       O206   2.088       .  S
Fe201       O213   2.101       .  S
Fe201       O202   2.038       .  S
Fe201       O210   1.949       .  S
O202        C209   1.272       .  A
O203        C217   1.267       .  A
O204        C209   1.289       .  A
O205        C208   1.257       .  A
O206        C218   1.274       .  A
O207        C220   1.270       .  A
C208        O213   1.269       .  A
C208       C1546   1.477   1_545  S
C209        C875   1.500       .  S
O211        C214   1.269       .  A
O212        C214   1.271       .  A
C214        C550   1.490       .  S
O215        C220   1.283       .  A
O216        C218   1.272       .  A
C217        O219   1.273       .  A
C217        C620   1.457       .  S
C218        C508   1.484       .  S
C220        C536   1.513       .  S
Fe221       O237   2.117       .  S
Fe221       O227   2.052       .  S
Fe221       O234   2.070       .  S
Fe221       O226   2.141       .  S
Fe221       O232   1.954       .  S
Fe222       O225   2.043       .  S
Fe222       O229   2.067       .  S
Fe222       O233   2.054       .  S
Fe222       O238   2.083       .  S
Fe222       O232   1.972       .  S
Fe223       O241   2.062       .  S
Fe223       O228   2.070       .  S
Fe223       O235   2.092       .  S
Fe223       O224   2.043       .  S
Fe223       O232   1.955       .  S
O224        C231   1.272       .  A
O225        C239   1.266       .  A
O226        C231   1.289       .  A
O227        C230   1.261       .  A
O228        C240   1.273       .  A
O229        C242   1.269       .  A
C230        O235   1.268       .  A
C230        C469   1.483       .  S
C231        C802   1.501       .  S
O233        C236   1.269       .  A
O234        C236   1.267       .  A
C236        C606   1.486       .  S
O237        C242   1.286       .  A
O238        C240   1.272       .  A
C239        O241   1.273       .  A
C239        C494   1.459       .  S
C240        C455   1.496       .  S
C242        C480   1.506       .  S
Fe243       O259   2.076       .  S
Fe243       O249   2.126       .  S
Fe243       O256   2.129       .  S
Fe243       O248   2.017   1_545  S
Fe243       O254   1.961       .  S
Fe244       O247   2.069       .  S
Fe244       O251   2.041       .  S
Fe244       O255   2.058       .  S
Fe244       O260   2.030       .  S
Fe244       O254   1.967       .  S
Fe245       O263   2.074       .  S
Fe245       O250   2.054       .  S
Fe245       O257   2.035       .  S
Fe245       O246   2.068       .  S
Fe245       O254   1.963       .  S
O246        C253   1.264   1_545  A
O247        C261   1.273       .  A
O248        C253   1.256       .  A
O249        C252   1.291       .  A
O250        C262   1.266       .  A
O251        C264   1.261       .  A
C252        O257   1.270       .  A
C252        C746   1.484       .  S
C253       C1448   1.470       .  S
O255        C258   1.273       .  A
O256        C258   1.288       .  A
C258        C410   1.509       .  S
O259        C264   1.263       .  A
O260        C262   1.260       .  A
C261        O263   1.272       .  A
C261        C438   1.480       .  S
C262        C497   1.455       .  S
C264        C553   1.490       .  S
Fe265       O281   2.060       .  S
Fe265       O271   2.147       .  S
Fe265       O278   2.144       .  S
Fe265       O270   2.030       .  S
Fe265       O276   1.944       .  S
Fe266       O269   2.075       .  S
Fe266       O273   2.054       .  S
Fe266       O277   2.052       .  S
Fe266       O282   2.049       .  S
Fe266       O276   1.944       .  S
Fe267       O285   2.079       .  S
Fe267       O272   2.063       .  S
Fe267       O279   2.029       .  S
Fe267       O268   2.102       .  S
Fe267       O276   1.953       .  S
O268        C275   1.269       .  A
O269        C283   1.268       .  A
O270        C275   1.257       .  A
O271        C274   1.292       .  A
O272        C284   1.276       .  A
O273        C286   1.267       .  A
C274        O279   1.269       .  A
C274        C707   1.485       .  S
C275       C1476   1.476       .  S
O277        C280   1.270       .  A
O278        C280   1.286       .  A
C280        C413   1.514       .  S
O281        C286   1.267       .  A
O282        C284   1.271       .  A
C283        O285   1.271       .  A
C283        C466   1.480       .  S
C284        C396   1.466       .  S
C286        C382   1.480       .  S
Fe287       O303   2.125       .  S
Fe287       O293   2.036       .  S
Fe287       O300   2.081       .  S
Fe287       O292   2.120       .  S
Fe287       O298   1.964       .  S
Fe288       O291   2.021       .  S
Fe288       O295   2.074       .  S
Fe288       O299   2.050       .  S
Fe288       O304   2.053       .  S
Fe288       O298   1.971       .  S
Fe289       O307   2.067       .  S
Fe289       O294   2.079       .  S
Fe289       O301   2.099       .  S
Fe289       O290   2.065       .  S
Fe289       O298   1.980       .  S
O290        C297   1.274       .  A
O291        C305   1.260       .  A
O292        C297   1.288       .  A
O293        C296   1.261       .  A
O294        C306   1.275       .  A
O295        C308   1.276       .  A
C296        O301   1.269       .  A
C296        C441   1.494       .  S
C297        C676   1.487       .  S
O299        C302   1.259       .  A
O300        C302   1.266       .  A
C302        C368   1.494       .  S
O303        C308   1.286       .  A
O304        C306   1.270       .  A
C305        O307   1.270       .  A
C305        C399   1.475       .  S
C306        C427   1.476       .  S
C308        C483   1.510       .  S
Fe309       O325   2.121       .  S
Fe309       O315   2.025       .  S
Fe309       O322   2.062       .  S
Fe309       O314   2.116       .  S
Fe309       O320   1.962       .  S
Fe310       O313   2.025       .  S
Fe310       O317   2.083       .  S
Fe310       O321   2.063       .  S
Fe310       O326   2.074       .  S
Fe310       O320   1.976       .  S
Fe311       O329   2.062       .  S
Fe311       O316   2.082       .  S
Fe311       O323   2.094       .  S
Fe311       O312   2.056       .  S
Fe311       O320   1.974       .  S
O312        C319   1.273       .  A
O313        C327   1.261       .  A
O314        C319   1.287       .  A
O315        C318   1.256       .  A
O316        C328   1.274       .  A
O317        C330   1.277       .  A
C318        O323   1.268       .  A
C318       C1616   1.492       .  S
C319        C651   1.480       .  S
O321        C324   1.262       .  A
O322        C324   1.264       .  A
C324        C385   1.490       .  S
O325        C330   1.284       .  A
O326        C328   1.273       .  A
C327        O329   1.269       .  A
C327        C357   1.468       .  S
C328        C581   1.490       .  S
C330        C539   1.521       .  S
Fe331       O347   2.080       .  S
Fe331       O337   2.151       .  S
Fe331       O344   2.122       .  S
Fe331       O336   2.048       .  S
Fe331       O342   1.949       .  S
Fe332       O335   2.066       .  S
Fe332       O339   2.062       .  S
Fe332       O343   2.051       .  S
Fe332       O348   2.032       .  S
Fe332       O342   1.960       .  S
Fe333       O351   2.073       .  S
Fe333       O338   2.062       .  S
Fe333       O345   2.039       .  S
Fe333       O334   2.104       .  S
Fe333       O342   1.953       .  S
O334        C341   1.268       .  A
O335        C349   1.271       .  A
O336        C341   1.260       .  A
O337        C340   1.292       .  A
O338        C350   1.275       .  A
O339        C352   1.270       .  A
C340        O345   1.273       .  A
C340        C637   1.504       .  S
C341        C511   1.482       .  S
O343        C346   1.266       .  A
O344        C346   1.284       .  A
C346        C567   1.503       .  S
O347        C352   1.271       .  A
O348        C350   1.265       .  A
C349        O351   1.273       .  A
C349        C525   1.483       .  S
C350        C354   1.461       .  S
C352        C371   1.491       .  S
C353        C354   1.403       .  A
C353        C358   1.387   1_554  A
C353        H360   1.082       .  S
C354        C355   1.402       .  A
C355        C356   1.395       .  A
C355        N362   1.430       .  S
C356        C357   1.412   1_554  A
C356        H361   1.084       .  S
C357        C358   1.407       .  A
C358        N359   1.429       .  S
N359        O363   1.262       .  A
N359        O364   1.262       .  A
N362        O366   1.262       .  A
N362        O365   1.262       .  A
C367        C368   1.406       .  A
C367        C372   1.405   1_455  A
C367        H374   1.086       .  S
C368        C369   1.417       .  A
C369        C370   1.401   1_455  A
C369        N376   1.429       .  S
C370        C371   1.404       .  A
C370        H375   1.087       .  S
C371        C372   1.415       .  A
C372        N373   1.428       .  S
N373        O377   1.262       .  A
N373        O378   1.262       .  A
N376        O380   1.262       .  A
N376        O379   1.262       .  A
C381        C382   1.403       .  A
C381        C386   1.400       .  A
C381        H388   1.084       .  S
C382        C383   1.412       .  A
C383        C384   1.399       .  A
C383        N390   1.430       .  S
C384        C385   1.408       .  A
C384        H389   1.083       .  S
C385        C386   1.415       .  A
C386        N387   1.428       .  S
N387        O391   1.262       .  A
N387        O392   1.262       .  A
N390        O394   1.262       .  A
N390        O393   1.262       .  A
C395        C396   1.407   1_554  A
C395        C400   1.392       .  A
C395        H402   1.086   1_554  S
C396        C397   1.404       .  A
C397        C398   1.391   1_556  A
C397        N404   1.429       .  S
C398        C399   1.410       .  A
C398        H403   1.083       .  S
C399        C400   1.406       .  A
C400        N401   1.428       .  S
N401        O405   1.262       .  A
N401        O406   1.262       .  A
N404        O408   1.262       .  A
N404        O407   1.262       .  A
C409        C410   1.416       .  A
C409        C414   1.413   1_554  A
C409        H416   1.086       .  S
C410       C1435   1.413   1_545  A
C411        C412   1.407       .  A
C411       C1434   1.413       .  A
C411        N418   1.428       .  S
C412        C413   1.414   1_554  A
C412        H417   1.086       .  S
C413       C1438   1.414       .  A
C414       C1437   1.414   1_545  A
C414        N415   1.429       .  S
N415        O419   1.262       .  A
N415       O1444   1.262       .  A
N418        O422   1.262       .  A
N418       O1445   1.262       .  A
O420       N1439   1.262       .  A
O421       N1442   1.262       .  A
C423        C424   1.396       .  A
C423        C428   1.402       .  A
C423        H430   1.085       .  S
C424       C1277   1.477       .  S
C424        C425   1.417       .  A
C425        C426   1.396       .  A
C425        N432   1.432       .  S
C426        C427   1.399       .  A
C426        H431   1.085       .  S
C427        C428   1.418       .  A
C428        N429   1.428       .  S
N429        O433   1.262       .  A
N429        O434   1.262       .  A
N432        O436   1.262       .  A
N432        O435   1.262       .  A
C437        C438   1.407       .  A
C437        C442   1.410       .  A
C437        H444   1.087       .  S
C438        C439   1.408       .  A
C439        C440   1.393       .  A
C439        N446   1.431       .  S
C440        C441   1.409       .  A
C440        H445   1.087       .  S
C441        C442   1.414       .  A
C442        N443   1.427       .  S
N443        O447   1.262       .  A
N443        O448   1.262       .  A
N446        O450   1.262       .  A
N446        O449   1.262       .  A
C451        C452   1.402       .  A
C451        C456   1.412       .  A
C451        H458   1.088       .  S
C452       C1299   1.484   1_545  S
C452        C453   1.415       .  A
C453        C454   1.392       .  A
C453        N460   1.431       .  S
C454        C455   1.403       .  A
C454        H459   1.089       .  S
C455        C456   1.419       .  A
C456        N457   1.426       .  S
N457        O461   1.262       .  A
N457        O462   1.262       .  A
N460        O464   1.262       .  A
N460       O1487   1.262       .  A
O463       N1484   1.262       .  A
C465        C466   1.400       .  A
C465        C470   1.392       .  A
C465        H472   1.087       .  S
C466        C467   1.411       .  A
C467        C468   1.412       .  A
C467        N474   1.428       .  S
C468        C469   1.410       .  A
C468        H473   1.086       .  S
C469        C470   1.408       .  A
C470        N471   1.426       .  S
N471        O475   1.262       .  A
N471        O476   1.261       .  A
N474        O478   1.262       .  A
N474        O477   1.262       .  A
C479        C480   1.394       .  A
C479        C484   1.397   1_556  A
C479        H486   1.079       .  S
C480        C481   1.423   1_556  A
C481        C482   1.420       .  A
C481        N488   1.429   1_554  S
C482        C483   1.408       .  A
C482        H487   1.081       .  S
C483        C484   1.418       .  A
C484        N485   1.420       .  S
N485        O489   1.260       .  A
N485        O490   1.262   1_554  A
N488        O492   1.260   1_556  A
N488        O491   1.262       .  A
C493        C494   1.397       .  A
C493        C498   1.393       .  A
C493        H500   1.084       .  S
C494        C495   1.411   1_556  A
C495        C496   1.390       .  A
C495        N502   1.424       .  S
C496        C497   1.394       .  A
C496        H501   1.084       .  S
C497        C498   1.410   1_554  A
C498        N499   1.428       .  S
N499        O503   1.261       .  A
N499        O504   1.262       .  A
N502        O506   1.262       .  A
N502        O505   1.262       .  A
C507        C508   1.408       .  A
C507        C512   1.409       .  A
C507        H514   1.086       .  S
C508        C509   1.411       .  A
C509        C510   1.397       .  A
C509        N516   1.429       .  S
C510        C511   1.403       .  A
C510        H515   1.087       .  S
C511        C512   1.410       .  A
C512        N513   1.427       .  S
N513        O517   1.262       .  A
N513        O518   1.262       .  A
N516        O520   1.262       .  A
N516        O519   1.262       .  A
C521        C522   1.401       .  A
C521        C526   1.411       .  A
C521        H528   1.086       .  S
C522       C1232   1.478       .  S
C522        C523   1.413       .  A
C523        C524   1.391       .  A
C523       N1554   1.428       .  S
C524        C525   1.398       .  A
C524        H529   1.087       .  S
C525        C526   1.419       .  A
C526        N527   1.427       .  S
N527        O531   1.262       .  A
N527        O532   1.262       .  A
N530       C1547   1.429       .  S
N530        O534   1.260       .  A
N530        O533   1.262       .  A
C535        C536   1.414       .  A
C535        C540   1.409   1_554  A
C535        H542   1.086       .  S
C536       C1561   1.417   1_545  A
C537        C538   1.413   1_554  A
C537       C1560   1.417       .  A
C537        N544   1.428       .  S
C538        C539   1.415       .  A
C538        H543   1.084       .  S
C539       C1564   1.417       .  A
C540       C1563   1.412       .  A
C540        N541   1.428       .  S
N541        O545   1.262       .  A
N541        O546   1.262       .  A
N544        O548   1.262       .  A
N544        O547   1.262       .  A
C549        C550   1.407       .  A
C549        C554   1.406       .  A
C549        H556   1.084       .  S
C550        C551   1.414       .  A
C551        C552   1.396       .  A
C551        N558   1.429       .  S
C552        C553   1.404       .  A
C552        H557   1.085       .  S
C553        C554   1.416       .  A
C554        N555   1.429       .  S
N555        O559   1.262   1_545  A
N555        O560   1.262       .  A
N558        O562   1.262       .  A
N558        O561   1.262       .  A
C563        C564   1.400       .  A
C563        C568   1.404       .  A
C563        H570   1.084       .  S
C564        C565   1.424       .  A
C565        C566   1.408   1_556  A
C565        N572   1.428       .  S
C566        C567   1.401       .  A
C566        H571   1.084       .  S
C567        C568   1.423   1_554  A
C568        N569   1.426       .  S
N569        O573   1.262       .  A
N569        O574   1.262       .  A
N572        O576   1.262   1_556  A
N572        O575   1.262       .  A
C577        C578   1.406       .  A
C577        C582   1.395       .  A
C577        H584   1.087       .  S
C578        C579   1.413       .  A
C579        C580   1.412       .  A
C579        N586   1.428       .  S
C580        C581   1.411       .  A
C580        H585   1.086       .  S
C581        C582   1.409       .  A
C582        N583   1.429       .  S
N583        O587   1.262       .  A
N583        O588   1.262       .  A
N586        O590   1.262       .  A
N586        O589   1.262       .  A
C591        C592   1.410       .  A
C591        C596   1.413       .  A
C591        H598   1.082       .  S
C592       C1342   1.496       .  S
C592        C593   1.421       .  A
C593        C594   1.393       .  A
C593        N600   1.429       .  S
C594        C595   1.392       .  A
C594        H599   1.084       .  S
C595        C596   1.414       .  A
C596        N597   1.431       .  S
N597        O601   1.261       .  A
N597        O602   1.262       .  A
N600        O604   1.262       .  A
N600        O603   1.262       .  A
C605        C606   1.402       .  A
C605        C610   1.396   1_455  A
C605        H612   1.086       .  S
C606        C607   1.416       .  A
C607        C608   1.404   1_455  A
C607        N614   1.429       .  S
C608        C609   1.405       .  A
C608        H613   1.086       .  S
C609        C610   1.415       .  A
C610        N611   1.429       .  S
N611        O615   1.262       .  A
N611        O616   1.262       .  A
N614        O618   1.262       .  A
N614        O617   1.262       .  A
C619        C620   1.410       .  A
C619        C624   1.397       .  A
C619        H626   1.086       .  S
C620        C621   1.404       .  A
C621        C622   1.390   1_554  A
C621        N628   1.429       .  S
C622        C623   1.399       .  A
C622        H627   1.086       .  S
C623        C624   1.399   1_556  A
C624        N625   1.430       .  S
N625        O629   1.262   1_554  A
N625        O630   1.262       .  A
N628        O632   1.262       .  A
N628        O631   1.262   1_554  A
C633        C634   1.411       .  A
C633        C638   1.409       .  A
C633        H640   1.086       .  S
C634        C635   1.405       .  A
C635        C636   1.405       .  A
C635        N642   1.428       .  S
C636        C637   1.416       .  A
C636        H641   1.086       .  S
C637        C638   1.412       .  A
C638        N639   1.428       .  S
N639        O643   1.262       .  A
N639        O644   1.262       .  A
N642        O646   1.262       .  A
N642        O645   1.262       .  A
C647        C648   1.415       .  A
C647        C652   1.400       .  A
C647        H654   1.086       .  S
C648        C649   1.411       .  A
C649        C650   1.408       .  A
C649        N656   1.428       .  S
C650        C651   1.408       .  A
C650        H655   1.087       .  S
C651        C652   1.403       .  A
C652        N653   1.428       .  S
N653        O657   1.262       .  A
N653        O658   1.262       .  A
N656        O660   1.262       .  A
N656        O659   1.262       .  A
C661        C662   1.405       .  A
C661        C666   1.386       .  A
C661        H668   1.085       .  S
C662        C663   1.405       .  A
C663        C664   1.394       .  A
C663        N670   1.428       .  S
C664        C665   1.409       .  A
C664        H669   1.084       .  S
C665        C666   1.410       .  A
C666        N667   1.430       .  S
N667        O671   1.262       .  A
N667        O672   1.262       .  A
N670        O674   1.262       .  A
N670        O673   1.262       .  A
C675        C676   1.409       .  A
C675        C680   1.415       .  A
C675        H682   1.086       .  S
C676        C677   1.402       .  A
C677        C678   1.402       .  A
C677        N684   1.428       .  S
C678        C679   1.416       .  A
C678        H683   1.084       .  S
C679        C680   1.418       .  A
C680        N681   1.428       .  S
N681        O685   1.262       .  A
N681        O686   1.262       .  A
N684        O688   1.262       .  A
N684        O687   1.262       .  A
C689        C690   1.409       .  A
C689        C694   1.403       .  A
C689        H696   1.087       .  S
C690        C691   1.414       .  A
C691        C692   1.402       .  A
C691        N698   1.428       .  S
C692        C693   1.409       .  A
C692        H697   1.086       .  S
C693        C694   1.414       .  A
C694        N695   1.429       .  S
N695        O699   1.262       .  A
N695        O700   1.262       .  A
N698        O702   1.262       .  A
N698        O701   1.262       .  A
C703        C704   1.404       .  A
C703        C708   1.398       .  A
C703        H710   1.090       .  S
C704        C705   1.414       .  A
C705        C706   1.406       .  A
C705        N712   1.427       .  S
C706        C707   1.402       .  A
C706        H711   1.097       .  S
C707        C708   1.413       .  A
C708        N709   1.429       .  S
N709        O713   1.262       .  A
N709        O714   1.262       .  A
N712        O716   1.261       .  A
N712        O715   1.262       .  A
C717        C718   1.402       .  A
C717        C722   1.401   1_455  A
C717        H724   1.087       .  S
C718        C719   1.416       .  A
C719        C720   1.406   1_455  A
C719        N726   1.429       .  S
C720        C721   1.405       .  A
C720        H725   1.086       .  S
C721        C722   1.416       .  A
C722        N723   1.428       .  S
N723        O727   1.261       .  A
N723        O728   1.262       .  A
N726        O730   1.262       .  A
N726        O729   1.262       .  A
C731        C732   1.402       .  A
C731        C736   1.388       .  A
C731        H738   1.104       .  S
C732        C733   1.410       .  A
C733        C734   1.393       .  A
C733        N740   1.428       .  S
C734        C735   1.402       .  A
C734        H739   1.105       .  S
C735        C736   1.410       .  A
C736        N737   1.429       .  S
N737        O741   1.262       .  A
N737        O742   1.262       .  A
N740        O744   1.262       .  A
N740        O743   1.262       .  A
C745        C746   1.396       .  A
C745        C750   1.404       .  A
C745        H752   1.087       .  S
C746        C747   1.423       .  A
C747        C748   1.399       .  A
C747        N754   1.430       .  S
C748        C749   1.394       .  A
C748        H753   1.087       .  S
C749        C750   1.421       .  A
C750        N751   1.429       .  S
N751        O755   1.262       .  A
N751        O756   1.262       .  A
N754        O758   1.262       .  A
N754        O757   1.262       .  A
C759        C760   1.415       .  A
C759        C764   1.406       .  A
C759        H766   1.082       .  S
C760       C1785   1.414       .  A
C761        C762   1.408       .  A
C761       C1784   1.413       .  A
C761        N768   1.428       .  S
C762        C763   1.415       .  A
C762        H767   1.085       .  S
C763       C1788   1.412       .  A
C764       C1787   1.412       .  A
C764        N765   1.429       .  S
N765        O769   1.262       .  A
N765        O770   1.262       .  A
N768        O772   1.262       .  A
N768        O771   1.262       .  A
C773        C774   1.397       .  A
C773        C778   1.398       .  A
C773        H780   1.087       .  S
C774        C775   1.419       .  A
C775        C776   1.405       .  A
C775        N782   1.427       .  S
C776        C777   1.396       .  A
C776       H1805   1.087       .  S
C777       C1101   1.476       .  S
C777        C778   1.416       .  A
C778        N779   1.429       .  S
N779        O783   1.262       .  A
N779        O784   1.262       .  A
H781       C1800   1.087       .  S
N782        O786   1.262       .  A
N782        O785   1.261       .  A
C787        C788   1.408       .  A
C787        C792   1.409       .  A
C787        H794   1.087       .  S
C788        C789   1.408       .  A
C789        C790   1.394       .  A
C789        N796   1.429       .  S
C790        C791   1.403       .  A
C790        H795   1.088       .  S
C791        C792   1.410       .  A
C792        N793   1.427       .  S
N793        O797   1.262       .  A
N793        O798   1.262       .  A
N796        O800   1.261       .  A
N796        O799   1.262       .  A
C801        C802   1.416       .  A
C801        C806   1.406       .  A
C801        H808   1.086       .  S
C802        C803   1.410       .  A
C803        C804   1.405       .  A
C803        N810   1.428       .  S
C804        C805   1.411       .  A
C804        H809   1.087       .  S
C805        C806   1.405       .  A
C806        N807   1.428       .  S
N807        O811   1.262       .  A
N807        O812   1.262       .  A
N810        O814   1.262       .  A
N810        O813   1.262       .  A
C815        C816   1.409       .  A
C815        C820   1.406       .  A
C815        H822   1.087       .  S
C816        C817   1.410       .  A
C817        C818   1.396       .  A
C817        N824   1.430       .  S
C818        C819   1.407       .  A
C818        H823   1.087       .  S
C819       C1123   1.488       .  S
C819        C820   1.411       .  A
C820       N1845   1.428       .  S
N821       C1844   1.428       .  S
N821        O825   1.262       .  A
N821        O826   1.262       .  A
N824        O828   1.262       .  A
N824        O827   1.262       .  A
C829        C830   1.401       .  A
C829        C834   1.406       .  A
C829        H836   1.086       .  S
C830        C831   1.421       .  A
C831        C832   1.395       .  A
C831        N838   1.429       .  S
C832        C833   1.392       .  A
C832        H837   1.087       .  S
C833        C834   1.417       .  A
C834        N835   1.429       .  S
N835        O839   1.261       .  A
N835        O840   1.262       .  A
N838        O842   1.261       .  A
N838        O841   1.262       .  A
C843        C844   1.413       .  A
C843        C848   1.402       .  A
C843        H850   1.092       .  S
C844        C845   1.413       .  A
C845        C846   1.409       .  A
C845        N852   1.428       .  S
C846        C847   1.413       .  A
C846        H851   1.093       .  S
C847        C848   1.412       .  A
C848        N849   1.429       .  S
N849        O853   1.262       .  A
N849        O854   1.262       .  A
N852        O856   1.261       .  A
N852        O855   1.262       .  A
C857        C858   1.398       .  A
C857        C862   1.395       .  A
C857        H864   1.087       .  S
C858        C859   1.418       .  A
C859        C860   1.391       .  A
C859        N866   1.430       .  S
C860        C861   1.399       .  A
C860        H865   1.087       .  S
C861        C862   1.420       .  A
C862        N863   1.429       .  S
N863        O867   1.262       .  A
N863        O868   1.262       .  A
N866        O870   1.262       .  A
N866        O869   1.262       .  A
C871        C872   1.410       .  A
C871        C876   1.407       .  A
C871        H878   1.084       .  S
C872        C873   1.403       .  A
C873        C874   1.403       .  A
C873        N880   1.428       .  S
C874        C875   1.416       .  A
C874        H879   1.084       .  S
C875        C876   1.412       .  A
C876        N877   1.428       .  S
N877        O881   1.261   1_545  A
N877        O882   1.262       .  A
N880        O884   1.262       .  A
N880        O883   1.262       .  A
C885        C886   1.406       .  A
C885        C890   1.413       .  A
C885        H892   1.086       .  S
C886        C887   1.416       .  A
C887        C888   1.387       .  A
C887        N894   1.431       .  S
C888        C889   1.404       .  A
C888        H893   1.086       .  S
C889        C890   1.420       .  A
C890        N891   1.429       .  S
N891        O895   1.261       .  A
N891        O896   1.262       .  A
N894        O898   1.262       .  A
N894        O897   1.262       .  A
C899        C900   1.399       .  A
C899        C904   1.405       .  A
C899        H906   1.088       .  S
C900       C1056   1.484       .  S
C900        C901   1.418       .  A
C901        C902   1.397       .  A
C901        N908   1.429       .  S
C902        C903   1.397       .  A
C902        H907   1.088       .  S
C903        C904   1.420       .  A
C904        N905   1.428       .  S
N905        O909   1.261       .  A
N905        O910   1.262       .  A
N908        O912   1.262       .  A
N908        O911   1.262       .  A
C913        C918   1.402       .  A
C913       C1938   1.403       .  A
C913        H920   1.086       .  S
C914        C915   1.425   1_565  A
C914       C1937   1.405       .  A
C915        C916   1.407       .  A
C915        N922   1.428       .  S
C916       C1941   1.403   1_545  A
C916        H921   1.085       .  S
C917        C918   1.421       .  A
C917       C1940   1.404       .  A
C918        N919   1.427       .  S
N919        O923   1.262       .  A
N919        O924   1.262       .  A
N922        O926   1.261       .  A
N922        O925   1.261       .  A
C927        C928   1.406       .  A
C927        C932   1.395   1_655  A
C927        H934   1.084       .  S
C928        C929   1.415       .  A
C929        C930   1.402   1_655  A
C929        N936   1.429       .  S
C930        C931   1.407       .  A
C930        H935   1.085       .  S
C931        C932   1.412       .  A
C932        N933   1.429       .  S
N933        O937   1.262       .  A
N933        O938   1.262       .  A
N936        O940   1.262   1_545  A
N936        O939   1.262   1_545  A
C941        C942   1.406       .  A
C941        C946   1.414       .  A
C941        H948   1.088       .  S
C942        C943   1.411       .  A
C943        C944   1.399       .  A
C943        N950   1.427       .  S
C944        C945   1.406       .  A
C944        H949   1.088       .  S
C945        C946   1.417       .  A
C946        N947   1.427       .  S
N947        O951   1.262       .  A
N947        O952   1.262       .  A
N950        O954   1.262       .  A
N950        O953   1.260       .  A
C955        C956   1.402       .  A
C955        C960   1.409       .  A
C955        H962   1.089       .  S
C956        C957   1.423       .  A
C957        C958   1.408       .  A
C957        N964   1.429       .  S
C958        C959   1.404       .  A
C958        H963   1.091       .  S
C959        C960   1.425       .  A
C960        N961   1.428       .  S
N961        O965   1.262       .  A
N961        O966   1.262       .  A
N964        O968   1.262       .  A
N964        O967   1.262       .  A
C969        C970   1.410       .  A
C969        C974   1.414       .  A
C969        H976   1.087       .  S
C970        C971   1.410       .  A
C971        C972   1.397       .  A
C971        N978   1.429       .  S
C972        C973   1.403       .  A
C972        H977   1.088       .  S
C973        C974   1.412       .  A
C974        N975   1.427       .  S
N975        O979   1.262       .  A
N975        O980   1.262       .  A
N978        O982   1.262       .  A
N978        O981   1.262       .  A
C983        C984   1.399       .  A
C983        C988   1.390       .  A
C983        H990   1.087       .  S
C984       C1166   1.477   1_545  S
C984        C985   1.411       .  A
C985        C986   1.409       .  A
C985        N992   1.427       .  S
C986        C987   1.408       .  A
C986        H991   1.086       .  S
C987        C988   1.413       .  A
C988        N989   1.429       .  S
N989        O993   1.262       .  A
N989        O994   1.262       .  A
N992        O996   1.262       .  A
N992        O995   1.262   1_545  A
C997        C998   1.404       .  A
C997       C1002   1.401       .  A
C997       H1004   1.085       .  S
C998        C999   1.416       .  A
C999       C1000   1.403       .  A
C999       N1006   1.429       .  S
C1000      C1001   1.406       .  A
C1000      H1005   1.085       .  S
C1001      C1002   1.418       .  A
C1002      N1003   1.429       .  S
N1003      O1007   1.262       .  A
N1003      O1008   1.262       .  A
N1006      O1010   1.262       .  A
N1006      O1009   1.262       .  A
C1011      C1012   1.393       .  A
C1011      C1016   1.390       .  A
C1011      H1018   1.086       .  S
C1012      C1013   1.422       .  A
C1013      C1014   1.393       .  A
C1013      N1020   1.427       .  S
C1014      C1015   1.392       .  A
C1014      H1019   1.086       .  S
C1015      C1016   1.419       .  A
C1016      N1017   1.427       .  S
N1017      O1021   1.261       .  A
N1017      O1022   1.262       .  A
N1020      O1024   1.260       .  A
N1020      O1023   1.262       .  A
Fe1025     O1041   2.069       .  S
Fe1025     O1031   2.150       .  S
Fe1025     O1038   2.133       .  S
Fe1025     O1030   2.043       .  S
Fe1025     O1036   1.941       .  S
Fe1026     O1029   2.074       .  S
Fe1026     O1033   2.070       .  S
Fe1026     O1037   2.063       .  S
Fe1026     O1042   2.040       .  S
Fe1026     O1036   1.966       .  S
Fe1027     O1045   2.073       .  S
Fe1027     O1032   2.060       .  S
Fe1027     O1039   2.040       .  S
Fe1027     O1028   2.104       .  S
Fe1027     O1036   1.955       .  S
O1028      C1035   1.268       .  A
O1029      C1043   1.274       .  A
O1030      C1035   1.260       .  A
O1031      C1034   1.293       .  A
O1032      C1044   1.276       .  A
O1033      C1046   1.267       .  A
C1034      O1039   1.272       .  A
C1034      C1966   1.503       .  S
C1035      C1997   1.486       .  S
O1037      C1040   1.269       .  A
O1038      C1040   1.287       .  A
C1040      C1980   1.517       .  S
O1041      C1046   1.269       .  A
O1042      C1044   1.264       .  A
C1043      O1045   1.271       .  A
C1043      C2011   1.487       .  S
C1044      C2036   1.473       .  S
C1046      C2022   1.491       .  S
Fe1047     O1063   2.090       .  S
Fe1047     O1053   2.050       .  S
Fe1047     O1060   2.074       .  S
Fe1047     O1052   2.106       .  S
Fe1047     O1058   1.952       .  S
Fe1048     O1051   2.028       .  S
Fe1048     O1055   2.097       .  S
Fe1048     O1059   2.044       .  S
Fe1048     O1064   2.077       .  S
Fe1048     O1058   1.959       .  S
Fe1049     O1067   2.062       .  S
Fe1049     O1054   2.063       .  S
Fe1049     O1061   2.088       .  S
Fe1049     O1050   2.075       .  S
Fe1049     O1058   1.939       .  S
O1050      C1057   1.277       .  A
O1051      C1065   1.261       .  A
O1052      C1057   1.287       .  A
O1053      C1056   1.259       .  A
O1054      C1066   1.273       .  A
O1055      C1068   1.277       .  A
C1056      O1061   1.270       .  A
C1057      C1896   1.495       .  S
O1059      C1062   1.261       .  A
O1060      C1062   1.264       .  A
C1062      C1952   1.487       .  S
O1063      C1068   1.283       .  A
O1064      C1066   1.272       .  A
C1065      O1067   1.272       .  A
C1065      C2039   1.467       .  S
C1066      C1913   1.476       .  S
C1068      C1938   1.510       .  S
Fe1069     O1085   2.090       .  S
Fe1069     O1075   2.051       .  S
Fe1069     O1082   2.085       .  S
Fe1069     O1074   2.103       .  S
Fe1069     O1080   1.948       .  S
Fe1070     O1073   2.036       .  S
Fe1070     O1077   2.091       .  S
Fe1070     O1081   2.051       .  S
Fe1070     O1086   2.081       .  S
Fe1070     O1080   1.949       .  S
Fe1071     O1089   2.070       .  S
Fe1071     O1076   2.070       .  S
Fe1071     O1083   2.093       .  S
Fe1071     O1072   2.066       .  S
Fe1071     O1080   1.939       .  S
O1072      C1079   1.274       .  A
O1073      C1087   1.263       .  A
O1074      C1079   1.286       .  A
O1075      C1078   1.262       .  A
O1076      C1088   1.273       .  A
O1077      C1090   1.277       .  A
C1078      O1083   1.274       .  A
C1078      C1854   1.488       .  S
C1079      C1829   1.487       .  S
O1081      C1084   1.264       .  A
O1082      C1084   1.267       .  A
C1084      C2025   1.492       .  S
O1085      C1090   1.279       .  A
O1086      C1088   1.274       .  A
C1087      O1089   1.274       .  A
C1087      C1885   1.479       .  S
C1088      C1840   1.491       .  S
C1090      C1871   1.506       .  S
Fe1091     O1107   2.069       .  S
Fe1091     O1097   2.130       .  S
Fe1091     O1104   2.138       .  S
Fe1091     O1096   2.035       .  S
Fe1091     O1102   1.947       .  S
Fe1092     O1095   2.067       .  S
Fe1092     O1099   2.049       .  S
Fe1092     O1103   2.050       .  S
Fe1092     O1108   2.040       .  S
Fe1092     O1102   1.960       .  S
Fe1093     O1111   2.096       .  S
Fe1093     O1098   2.069       .  S
Fe1093     O1105   2.044       .  S
Fe1093     O1094   2.094       .  S
Fe1093     O1102   1.961       .  S
O1094      C1101   1.269       .  A
O1095      C1109   1.269       .  A
O1096      C1101   1.259       .  A
O1097      C1100   1.291       .  A
O1098      C1110   1.274       .  A
O1099      C1112   1.262       .  A
C1100      O1105   1.273       .  A
C1100      C1773   1.486       .  S
O1103      C1106   1.271       .  A
O1104      C1106   1.287       .  A
C1106      C1784   1.513       .  S
O1107      C1112   1.268       .  A
O1108      C1110   1.264       .  A
C1109      O1111   1.275       .  A
C1109      C1815   1.477       .  S
C1110      C1882   1.473       .  S
C1112      C1955   1.485       .  S
Fe1113     O1129   2.108       .  S
Fe1113     O1119   2.114       .  S
Fe1113     O1126   2.103   1_565  S
Fe1113     O1118   2.054   1_565  S
Fe1113     O1124   1.952       .  S
Fe1114     O1117   2.068       .  S
Fe1114     O1121   2.053       .  S
Fe1114     O1125   2.071       .  S
Fe1114     O1130   2.044       .  S
Fe1114     O1124   1.956       .  S
Fe1115     O1133   2.082       .  S
Fe1115     O1120   2.055       .  S
Fe1115     O1127   2.058       .  S
Fe1115     O1116   2.094       .  S
Fe1115     O1124   1.943       .  S
O1116      C1123   1.273   1_565  A
O1117      C1131   1.268       .  A
O1118      C1123   1.267       .  A
O1119      C1122   1.285       .  A
O1120      C1132   1.267       .  A
O1121      C1134   1.266       .  A
C1122      O1127   1.272       .  A
C1122      C1728   1.488       .  S
O1125      C1128   1.269       .  A
O1126      C1128   1.276   1_545  A
C1128      C1787   1.506   1_565  S
O1129      C1134   1.278       .  A
O1130      C1132   1.268       .  A
C1131      O1133   1.278       .  A
C1131      C1857   1.489       .  S
C1132      C1759   1.471       .  S
C1134      C1742   1.500       .  S
Fe1135     O1151   2.123       .  S
Fe1135     O1141   2.047       .  S
Fe1135     O1148   2.067       .  S
Fe1135     O1140   2.144       .  S
Fe1135     O1146   1.959       .  S
Fe1136     O1139   2.060       .  S
Fe1136     O1143   2.039       .  S
Fe1136     O1147   2.072       .  S
Fe1136     O1152   2.060       .  S
Fe1136     O1146   1.953       .  S
Fe1137     O1155   2.054       .  S
Fe1137     O1142   2.079       .  S
Fe1137     O1149   2.102       .  S
Fe1137     O1138   2.035       .  S
Fe1137     O1146   1.959       .  S
O1138      C1145   1.270       .  A
O1139      C1153   1.271       .  A
O1140      C1145   1.288       .  A
O1141      C1144   1.261       .  A
O1142      C1154   1.273       .  A
O1143      C1156   1.266       .  A
C1144      O1149   1.271       .  A
C1144      C1812   1.477       .  S
C1145      C1703   1.491       .  S
O1147      C1150   1.273       .  A
O1148      C1150   1.271       .  A
C1150      C1714   1.486       .  S
O1151      C1156   1.279       .  A
O1152      C1154   1.268       .  A
C1153      O1155   1.272       .  A
C1153      C1756   1.457       .  S
C1154      C1798   1.482       .  S
C1156      C1868   1.502       .  S
Fe1157     O1173   2.118       .  S
Fe1157     O1163   2.045       .  S
Fe1157     O1170   2.086       .  S
Fe1157     O1162   2.142       .  S
Fe1157     O1168   1.944       .  S
Fe1158     O1161   2.044       .  S
Fe1158     O1165   2.066       .  S
Fe1158     O1169   2.069       .  S
Fe1158     O1174   2.075       .  S
Fe1158     O1168   1.946       .  S
Fe1159     O1177   2.064       .  S
Fe1159     O1164   2.069       .  S
Fe1159     O1171   2.092       .  S
Fe1159     O1160   2.032       .  S
Fe1159     O1168   1.959       .  S
O1160      C1167   1.272       .  A
O1161      C1175   1.269       .  A
O1162      C1167   1.290       .  A
O1163      C1166   1.261       .  A
O1164      C1176   1.269       .  A
O1165      C1178   1.269       .  A
C1166      O1171   1.264       .  A
C1167      C1672   1.493       .  S
O1169      C1172   1.272       .  A
O1170      C1172   1.272       .  A
C1172      C1745   1.500       .  S
O1173      C1178   1.283       .  A
O1174      C1176   1.273       .  A
C1175      O1177   1.275       .  A
C1175      C1686   1.473       .  S
C1176      C1994   1.484       .  S
C1178      C1941   1.512       .  S
Fe1179     O1195   2.081       .  S
Fe1179     O1185   2.125       .  S
Fe1179     O1192   2.114       .  S
Fe1179     O1184   2.051       .  S
Fe1179     O1190   1.946       .  S
Fe1180     O1183   2.066       .  S
Fe1180     O1187   2.061       .  S
Fe1180     O1191   2.079       .  S
Fe1180     O1196   2.025       .  S
Fe1180     O1190   1.960       .  S
Fe1181     O1199   2.065       .  S
Fe1181     O1186   2.061       .  S
Fe1181     O1193   2.063       .  S
Fe1181     O1182   2.081       .  S
Fe1181     O1190   1.956       .  S
O1182      C1189   1.270       .  A
O1183      C1197   1.269       .  A
O1184      C1189   1.263       .  A
O1185      C1188   1.287       .  A
O1186      C1198   1.267       .  A
O1187      C1200   1.265       .  A
C1188      O1193   1.271       .  A
C1188      C1658   1.493       .  S
C1189      C1910   1.474       .  S
O1191      C1194   1.270       .  A
O1192      C1194   1.282       .  A
C1194      C1983   1.514       .  S
O1195      C1200   1.271       .  A
O1196      C1198   1.263       .  A
C1197      O1199   1.274       .  A
C1197      C1927   1.485       .  S
C1198      C1689   1.468       .  S
C1200      C1717   1.493       .  S
Fe1201     O1217   2.080       .  S
Fe1201     O1207   2.131       .  S
Fe1201     O1214   2.126       .  S
Fe1201     O1206   2.042       .  S
Fe1201     O1212   1.957       .  S
Fe1202     O1205   2.052       .  S
Fe1202     O1209   2.033       .  S
Fe1202     O1213   2.055       .  S
Fe1202     O1218   2.021       .  S
Fe1202     O1212   1.976       .  S
Fe1203     O1221   2.076       .  S
Fe1203     O1208   2.054       .  S
Fe1203     O1215   2.056       .  S
Fe1203     O1204   2.075       .  S
Fe1203     O1212   1.962       .  S
O1204      C1211   1.264       .  A
O1205      C1219   1.269       .  A
O1206      C1211   1.261       .  A
O1207      C1210   1.289       .  A
O1208      C1220   1.264       .  A
O1209      C1222   1.257       .  A
C1210      O1215   1.274       .  A
C1210      C1969   1.489       .  S
C1211      C1602   1.477       .  S
O1213      C1216   1.271       .  A
O1214      C1216   1.289       .  A
C1216      C1588   1.507       .  S
O1217      C1222   1.267       .  A
O1218      C1220   1.258       .  A
C1219      O1221   1.275       .  A
C1219      C1619   1.476       .  S
C1220      C1647   1.448       .  S
C1222      C1633   1.485       .  S
Fe1223     O1239   2.131       .  S
Fe1223     O1229   2.034       .  S
Fe1223     O1236   2.066       .  S
Fe1223     O1228   2.138       .  S
Fe1223     O1234   1.949       .  S
Fe1224     O1227   2.044       .  S
Fe1224     O1231   2.071       .  S
Fe1224     O1235   2.067       .  S
Fe1224     O1240   2.069       .  S
Fe1224     O1234   1.958       .  S
Fe1225     O1243   2.070       .  S
Fe1225     O1230   2.080       .  S
Fe1225     O1237   2.096       .  S
Fe1225     O1226   2.043       .  S
Fe1225     O1234   1.958       .  S
O1226      C1233   1.273       .  A
O1227      C1241   1.265       .  A
O1228      C1233   1.288       .  A
O1229      C1232   1.259       .  A
O1230      C1242   1.273       .  A
O1231      C1244   1.273       .  A
C1232      O1237   1.268       .  A
C1233      C1899   1.496       .  S
O1235      C1238   1.267       .  A
O1236      C1238   1.268       .  A
C1238      C1574   1.485       .  S
O1239      C1244   1.284       .  A
O1240      C1242   1.273       .  A
C1241      O1243   1.274       .  A
C1241      C1644   1.457       .  S
C1242      C1532   1.483       .  S
C1244      C1560   1.520       .  S
Fe1245     O1261   2.108       .  S
Fe1245     O1251   2.052       .  S
Fe1245     O1258   2.066       .  S
Fe1245     O1250   2.132       .  S
Fe1245     O1256   1.946       .  S
Fe1246     O1249   2.054       .  S
Fe1246     O1253   2.056       .  S
Fe1246     O1257   2.063       .  S
Fe1246     O1262   2.071       .  S
Fe1246     O1256   1.967       .  S
Fe1247     O1265   2.051       .  S
Fe1247     O1252   2.061       .  S
Fe1247     O1259   2.084       .  S
Fe1247     O1248   2.041       .  S
Fe1247     O1256   1.955       .  S
O1248      C1255   1.272       .  A
O1249      C1263   1.269       .  A
O1250      C1255   1.287       .  A
O1251      C1254   1.263       .  A
O1252      C1264   1.271       .  A
O1253      C1266   1.267       .  A
C1254      O1259   1.264       .  A
C1254      C1493   1.475       .  S
C1255      C1826   1.493       .  S
O1257      C1260   1.270       .  A
O1258      C1260   1.268       .  A
C1260      C1630   1.483       .  S
O1261      C1266   1.283       .  A
O1262      C1264   1.270       .  A
C1263      O1265   1.271       .  A
C1263      C1518   1.456       .  S
C1264      C1479   1.481       .  S
C1266      C1504   1.495       .  S
Fe1267     O1283   2.066       .  S
Fe1267     O1273   2.137       .  S
Fe1267     O1280   2.133       .  S
Fe1267     O1272   2.014       .  S
Fe1267     O1278   1.956       .  S
Fe1268     O1271   2.072       .  S
Fe1268     O1275   2.048       .  S
Fe1268     O1279   2.065       .  S
Fe1268     O1284   2.034       .  S
Fe1268     O1278   1.972       .  S
Fe1269     O1287   2.079       .  S
Fe1269     O1274   2.047       .  S
Fe1269     O1281   2.039       .  S
Fe1269     O1270   2.079       .  S
Fe1269     O1278   1.963       .  S
O1270      C1277   1.265       .  A
O1271      C1285   1.274       .  A
O1272      C1277   1.253       .  A
O1273      C1276   1.295       .  A
O1274      C1286   1.265       .  A
O1275      C1288   1.261       .  A
C1276      O1281   1.270       .  A
C1276      C1770   1.497       .  S
O1279      C1282   1.275       .  A
O1280      C1282   1.290       .  A
C1282      C1434   1.514       .  S
O1283      C1288   1.261       .  A
O1284      C1286   1.260       .  A
C1285      O1287   1.273       .  A
C1285      C1462   1.483       .  S
C1286      C1521   1.451       .  S
C1288      C1577   1.487       .  S
Fe1289     O1305   2.073       .  S
Fe1289     O1295   2.151       .  S
Fe1289     O1302   2.130       .  S
Fe1289     O1294   2.027       .  S
Fe1289     O1300   1.939       .  S
Fe1290     O1293   2.065       .  S
Fe1290     O1297   2.066       .  S
Fe1290     O1301   2.050       .  S
Fe1290     O1306   2.047       .  S
Fe1290     O1300   1.939       .  S
Fe1291     O1309   2.079       .  S
Fe1291     O1296   2.078       .  S
Fe1291     O1303   2.038       .  S
Fe1291     O1292   2.115       .  S
Fe1291     O1300   1.956       .  S
O1292      C1299   1.270       .  A
O1293      C1307   1.272       .  A
O1294      C1299   1.254       .  A
O1295      C1298   1.291       .  A
O1296      C1308   1.278       .  A
O1297      C1310   1.270       .  A
C1298      O1303   1.270       .  A
C1298      C1731   1.491       .  S
O1301      C1304   1.269       .  A
O1302      C1304   1.283       .  A
C1304      C1437   1.509       .  S
O1305      C1310   1.271       .  A
O1306      C1308   1.269       .  A
C1307      O1309   1.272       .  A
C1307      C1490   1.477       .  S
C1308      C1420   1.482       .  S
C1310      C1406   1.490       .  S
Fe1311     O1327   2.118       .  S
Fe1311     O1317   2.037       .  S
Fe1311     O1324   2.069       .  S
Fe1311     O1316   2.116       .  S
Fe1311     O1322   1.961       .  S
Fe1312     O1315   2.031       .  S
Fe1312     O1319   2.056       .  S
Fe1312     O1323   2.052       .  S
Fe1312     O1328   2.046       .  S
Fe1312     O1322   1.972       .  S
Fe1313     O1331   2.070       .  S
Fe1313     O1318   2.082       .  S
Fe1313     O1325   2.095       .  S
Fe1313     O1314   2.063       .  S
Fe1313     O1322   1.970       .  S
O1314      C1321   1.276       .  A
O1315      C1329   1.262       .  A
O1316      C1321   1.287       .  A
O1317      C1320   1.261       .  A
O1318      C1330   1.276       .  A
O1319      C1332   1.272       .  A
C1320      O1325   1.267       .  A
C1320      C1465   1.492       .  S
C1321      C1700   1.488       .  S
O1323      C1326   1.259       .  A
O1324      C1326   1.264       .  A
C1326      C1392   1.490       .  S
O1327      C1332   1.286       .  A
O1328      C1330   1.268       .  A
C1329      O1331   1.269       .  A
C1329      C1423   1.481       .  S
C1330      C1451   1.474       .  S
C1332      C1507   1.496       .  S
Fe1333     O1349   2.105   1_565  S
Fe1333     O1339   2.056   1_565  S
Fe1333     O1346   2.098       .  S
Fe1333     O1338   2.107       .  S
Fe1333     O1344   1.950       .  S
Fe1334     O1337   2.039       .  S
Fe1334     O1341   2.083       .  S
Fe1334     O1345   2.066       .  S
Fe1334     O1350   2.070       .  S
Fe1334     O1344   1.957       .  S
Fe1335     O1353   2.074       .  S
Fe1335     O1340   2.071       .  S
Fe1335     O1347   2.094       .  S
Fe1335     O1336   2.061       .  S
Fe1335     O1344   1.955       .  S
O1336      C1343   1.273       .  A
O1337      C1351   1.266       .  A
O1338      C1343   1.285       .  A
O1339      C1342   1.264       .  A
O1340      C1352   1.272       .  A
O1341      C1354   1.275       .  A
C1342      O1347   1.272   1_545  A
C1343      C1675   1.483       .  S
O1345      C1348   1.265       .  A
O1346      C1348   1.272       .  A
C1348      C1409   1.502       .  S
O1349      C1354   1.280   1_545  A
O1350      C1352   1.271       .  A
C1351      O1353   1.272       .  A
C1351      C1381   1.478       .  S
C1352      C1605   1.483       .  S
C1354      C1563   1.507   1_565  S
Fe1355     O1371   2.074       .  S
Fe1355     O1361   2.154       .  S
Fe1355     O1368   2.121       .  S
Fe1355     O1360   2.046       .  S
Fe1355     O1366   1.943       .  S
Fe1356     O1359   2.069       .  S
Fe1356     O1363   2.063       .  S
Fe1356     O1367   2.047       .  S
Fe1356     O1372   2.046       .  S
Fe1356     O1366   1.959       .  S
Fe1357     O1375   2.064       .  S
Fe1357     O1362   2.060       .  S
Fe1357     O1369   2.044       .  S
Fe1357     O1358   2.096       .  S
Fe1357     O1366   1.947       .  S
O1358      C1365   1.265       .  A
O1359      C1373   1.270       .  A
O1360      C1365   1.259       .  A
O1361      C1364   1.292       .  A
O1362      C1374   1.274       .  A
O1363      C1376   1.271       .  A
C1364      O1369   1.274       .  A
C1364      C1661   1.507       .  S
C1365      C1535   1.477       .  S
O1367      C1370   1.265       .  A
O1368      C1370   1.284       .  A
C1370      C1591   1.505       .  S
O1371      C1376   1.271       .  A
O1372      C1374   1.269       .  A
C1373      O1375   1.272       .  A
C1373      C1549   1.485       .  S
C1374      C1378   1.475       .  S
C1376      C1395   1.486       .  S
C1377      C1378   1.408       .  A
C1377      C1382   1.391   1_554  A
C1377      H1384   1.082       .  S
C1378      C1379   1.407       .  A
C1379      C1380   1.398   1_554  A
C1379      N1386   1.430       .  S
C1380      C1381   1.412       .  A
C1380      H1385   1.081       .  S
C1381      C1382   1.408       .  A
C1382      N1383   1.429       .  S
N1383      O1387   1.262       .  A
N1383      O1388   1.262       .  A
N1386      O1390   1.262       .  A
N1386      O1389   1.262       .  A
C1391      C1392   1.406       .  A
C1391      C1396   1.403   1_455  A
C1391      H1398   1.087       .  S
C1392      C1393   1.415       .  A
C1393      C1394   1.399   1_455  A
C1393      N1400   1.429       .  S
C1394      C1395   1.403       .  A
C1394      H1399   1.087       .  S
C1395      C1396   1.415       .  A
C1396      N1397   1.429       .  S
N1397      O1401   1.262       .  A
N1397      O1402   1.262       .  A
N1400      O1404   1.262       .  A
N1400      O1403   1.262       .  A
C1405      C1406   1.403       .  A
C1405      C1410   1.402       .  A
C1405      H1412   1.084       .  S
C1406      C1407   1.412       .  A
C1407      C1408   1.407       .  A
C1407      N1414   1.429       .  S
C1408      C1409   1.411       .  A
C1408      H1413   1.083       .  S
C1409      C1410   1.418       .  A
C1410      N1411   1.428       .  S
N1411      O1415   1.262       .  A
N1411      O1416   1.262       .  A
N1414      O1418   1.262       .  A
N1414      O1417   1.262   1_565  A
C1419      C1420   1.414       .  A
C1419      C1424   1.394   1_556  A
C1419      H1426   1.086       .  S
C1420      C1421   1.406       .  A
C1421      C1422   1.393   1_556  A
C1421      N1428   1.428       .  S
C1422      C1423   1.410       .  A
C1422      H1427   1.084       .  S
C1423      C1424   1.405       .  A
C1424      N1425   1.429       .  S
N1425      O1429   1.262       .  A
N1425      O1430   1.262       .  A
N1428      O1432   1.262       .  A
N1428      O1431   1.262       .  A
C1433      C1434   1.418       .  A
C1433      C1438   1.415   1_554  A
C1433      H1440   1.086       .  S
C1435      C1436   1.406       .  A
C1435      N1442   1.429       .  S
C1436      C1437   1.413   1_554  A
C1436      H1441   1.086   1_554  S
C1438      N1439   1.429       .  S
N1439      O1443   1.262       .  A
N1442      O1446   1.262       .  A
C1447      C1448   1.394       .  A
C1447      C1452   1.400       .  A
C1447      H1454   1.085       .  S
C1448      C1449   1.415       .  A
C1449      C1450   1.394       .  A
C1449      N1456   1.431       .  S
C1450      C1451   1.399       .  A
C1450      H1455   1.085       .  S
C1451      C1452   1.418       .  A
C1452      N1453   1.427       .  S
N1453      O1457   1.261       .  A
N1453      O1458   1.261       .  A
N1456      O1460   1.262       .  A
N1456      O1459   1.262       .  A
C1461      C1462   1.407       .  A
C1461      C1466   1.410       .  A
C1461      H1468   1.086       .  S
C1462      C1463   1.408       .  A
C1463      C1464   1.395       .  A
C1463      N1470   1.430       .  S
C1464      C1465   1.408       .  A
C1464      H1469   1.087       .  S
C1465      C1466   1.413       .  A
C1466      N1467   1.427       .  S
N1467      O1471   1.262       .  A
N1467      O1472   1.262       .  A
N1470      O1474   1.262       .  A
N1470      O1473   1.262       .  A
C1475      C1476   1.401       .  A
C1475      C1480   1.407       .  A
C1475      H1482   1.089       .  S
C1476      C1477   1.416       .  A
C1477      C1478   1.392       .  A
C1477      N1484   1.433       .  S
C1478      C1479   1.400       .  A
C1478      H1483   1.090       .  S
C1479      C1480   1.415       .  A
C1480      N1481   1.427       .  S
N1481      O1485   1.262       .  A
N1481      O1486   1.262       .  A
N1484      O1488   1.262       .  A
C1489      C1490   1.407       .  A
C1489      C1494   1.409       .  A
C1489      H1496   1.086       .  S
C1490      C1491   1.409       .  A
C1491      C1492   1.391       .  A
C1491      N1498   1.425       .  S
C1492      C1493   1.398       .  A
C1492      H1497   1.087       .  S
C1493      C1494   1.410       .  A
C1494      N1495   1.426       .  S
N1495      O1499   1.262       .  A
N1495      O1500   1.262       .  A
N1498      O1502   1.262       .  A
N1498      O1501   1.262       .  A
C1503      C1504   1.396       .  A
C1503      C1508   1.395   1_556  A
C1503      H1510   1.085       .  S
C1504      C1505   1.422   1_556  A
C1505      C1506   1.412       .  A
C1505      N1512   1.428       .  S
C1506      C1507   1.402       .  A
C1506      H1511   1.084       .  S
C1507      C1508   1.420       .  A
C1508      N1509   1.425       .  S
N1509      O1513   1.261       .  A
N1509      O1514   1.262       .  A
N1512      O1516   1.260       .  A
N1512      O1515   1.262   1_554  A
C1517      C1518   1.400       .  A
C1517      C1522   1.395       .  A
C1517      H1524   1.084       .  S
C1518      C1519   1.407   1_556  A
C1519      C1520   1.386       .  A
C1519      N1526   1.424       .  S
C1520      C1521   1.394       .  A
C1520      H1525   1.085       .  S
C1521      C1522   1.408   1_554  A
C1522      N1523   1.428       .  S
N1523      O1527   1.262       .  A
N1523      O1528   1.262       .  A
N1526      O1530   1.262       .  A
N1526      O1529   1.261       .  A
C1531      C1532   1.409       .  A
C1531      C1536   1.409       .  A
C1531      H1538   1.087       .  S
C1532      C1533   1.412       .  A
C1533      C1534   1.394       .  A
C1533      N1540   1.429       .  S
C1534      C1535   1.400       .  A
C1534      H1539   1.088       .  S
C1535      C1536   1.409       .  A
C1536      N1537   1.427       .  S
N1537      O1541   1.262       .  A
N1537      O1542   1.262       .  A
N1540      O1544   1.262       .  A
N1540      O1543   1.262       .  A
C1545      C1546   1.402       .  A
C1545      C1550   1.411       .  A
C1545      H1552   1.087       .  S
C1546      C1547   1.412       .  A
C1547      C1548   1.387       .  A
C1548      C1549   1.399       .  A
C1548      H1553   1.088       .  S
C1549      C1550   1.419       .  A
C1550      N1551   1.427       .  S
N1551      O1555   1.262       .  A
N1551      O1556   1.262       .  A
N1554      O1558   1.261       .  A
N1554      O1557   1.262       .  A
C1559      C1560   1.415       .  A
C1559      C1564   1.413   1_554  A
C1559      H1566   1.084       .  S
C1561      C1562   1.410   1_554  A
C1561      N1568   1.429       .  S
C1562      C1563   1.412   1_565  A
C1562      H1567   1.087       .  S
C1564      N1565   1.428       .  S
N1565      O1569   1.262       .  A
N1565      O1570   1.262       .  A
N1568      O1572   1.262       .  A
N1568      O1571   1.262       .  A
C1573      C1574   1.405       .  A
C1573      C1578   1.402       .  A
C1573      H1580   1.085       .  S
C1574      C1575   1.412       .  A
C1575      C1576   1.399       .  A
C1575      N1582   1.429       .  S
C1576      C1577   1.405       .  A
C1576      H1581   1.085       .  S
C1577      C1578   1.417       .  A
C1578      N1579   1.430       .  S
N1579      O1583   1.262       .  A
N1579      O1584   1.262       .  A
N1582      O1586   1.262       .  A
N1582      O1585   1.262       .  A
C1587      C1588   1.403       .  A
C1587      C1592   1.406       .  A
C1587      H1594   1.083       .  S
C1588      C1589   1.425       .  A
C1589      C1590   1.406   1_556  A
C1589      N1596   1.429       .  S
C1590      C1591   1.401       .  A
C1590      H1595   1.084       .  S
C1591      C1592   1.425   1_554  A
C1592      N1593   1.429       .  S
N1593      O1597   1.262       .  A
N1593      O1598   1.262       .  A
N1596      O1600   1.262   1_556  A
N1596      O1599   1.262   1_556  A
C1601      C1602   1.403       .  A
C1601      C1606   1.395       .  A
C1601      H1608   1.087       .  S
C1602      C1603   1.408       .  A
C1603      C1604   1.405       .  A
C1603      N1610   1.428       .  S
C1604      C1605   1.410       .  A
C1604      H1609   1.087       .  S
C1605      C1606   1.409       .  A
C1606      N1607   1.429       .  S
N1607      O1611   1.262       .  A
N1607      O1612   1.262       .  A
N1610      O1614   1.262       .  A
N1610      O1613   1.262       .  A
C1615      C1616   1.409       .  A
C1615      C1620   1.411       .  A
C1615      H1622   1.082       .  S
C1616      C1617   1.422       .  A
C1617      C1618   1.390       .  A
C1617      N1624   1.430       .  S
C1618      C1619   1.394       .  A
C1618      H1623   1.084       .  S
C1619      C1620   1.414       .  A
C1620      N1621   1.430       .  S
N1621      O1625   1.262       .  A
N1621      O1626   1.262       .  A
N1624      O1628   1.262       .  A
N1624      O1627   1.262       .  A
C1629      C1630   1.402       .  A
C1629      C1634   1.398   1_455  A
C1629      H1636   1.087       .  S
C1630      C1631   1.415       .  A
C1631      C1632   1.402   1_455  A
C1631      N1638   1.429       .  S
C1632      C1633   1.404       .  A
C1632      H1637   1.086       .  S
C1633      C1634   1.417       .  A
C1634      N1635   1.430       .  S
N1635      O1639   1.262       .  A
N1635      O1640   1.262       .  A
N1638      O1642   1.262       .  A
N1638      O1641   1.262       .  A
C1643      C1644   1.412       .  A
C1643      C1648   1.397       .  A
C1643      H1650   1.086       .  S
C1644      C1645   1.402       .  A
C1645      C1646   1.387   1_554  A
C1645      N1652   1.428       .  S
C1646      C1647   1.400       .  A
C1646      H1651   1.087       .  S
C1647      C1648   1.399   1_556  A
C1648      N1649   1.431       .  S
N1649      O1653   1.262   1_554  A
N1649      O1654   1.262       .  A
N1652      O1656   1.262       .  A
N1652      O1655   1.262   1_554  A
C1657      C1658   1.410       .  A
C1657      C1662   1.410       .  A
C1657      H1664   1.086       .  S
C1658      C1659   1.408       .  A
C1659      C1660   1.406       .  A
C1659      N1666   1.429       .  S
C1660      C1661   1.416       .  A
C1660      H1665   1.085       .  S
C1661      C1662   1.413       .  A
C1662      N1663   1.427       .  S
N1663      O1667   1.262       .  A
N1663      O1668   1.262       .  A
N1666      O1670   1.262       .  A
N1666      O1669   1.262       .  A
C1671      C1672   1.414       .  A
C1671      C1676   1.402       .  A
C1671      H1678   1.086       .  S
C1672      C1673   1.408       .  A
C1673      C1674   1.403       .  A
C1673      N1680   1.428       .  S
C1674      C1675   1.409       .  A
C1674      H1679   1.086       .  S
C1675      C1676   1.405       .  A
C1676      N1677   1.428       .  S
N1677      O1681   1.262       .  A
N1677      O1682   1.262       .  A
N1680      O1684   1.262       .  A
N1680      O1683   1.262   1_565  A
C1685      C1686   1.410       .  A
C1685      C1690   1.389       .  A
C1685      H1692   1.087       .  S
C1686      C1687   1.406       .  A
C1687      C1688   1.390       .  A
C1687      N1694   1.428       .  S
C1688      C1689   1.406       .  A
C1688      H1693   1.087       .  S
C1689      C1690   1.406       .  A
C1690      N1691   1.430       .  S
N1691      O1695   1.262       .  A
N1691      O1696   1.262       .  A
N1694      O1698   1.262       .  A
N1694      O1697   1.262       .  A
C1699      C1700   1.410       .  A
C1699      C1704   1.405       .  A
C1699      H1706   1.086       .  S
C1700      C1701   1.407       .  A
C1701      C1702   1.406       .  A
C1701      N1708   1.428       .  S
C1702      C1703   1.412       .  A
C1702      H1707   1.085       .  S
C1703      C1704   1.407       .  A
C1704      N1705   1.427       .  S
N1705      O1709   1.262       .  A
N1705      O1710   1.262       .  A
N1708      O1712   1.262       .  A
N1708      O1711   1.262       .  A
C1713      C1714   1.404       .  A
C1713      C1718   1.402       .  A
C1713      H1720   1.087       .  S
C1714      C1715   1.414       .  A
C1715      C1716   1.400       .  A
C1715      N1722   1.429       .  S
C1716      C1717   1.407       .  A
C1716      H1721   1.086       .  S
C1717      C1718   1.415       .  A
C1718      N1719   1.428       .  S
N1719      O1723   1.262       .  A
N1719      O1724   1.262       .  A
N1722      O1726   1.262       .  A
N1722      O1725   1.262       .  A
C1727      C1728   1.401       .  A
C1727      C1732   1.396       .  A
C1727      H1734   1.087       .  S
C1728      C1729   1.414       .  A
C1729      C1730   1.414       .  A
C1729      N1736   1.426   1_565  S
C1730      C1731   1.408       .  A
C1730      H1735   1.086   1_565  S
C1731      C1732   1.412       .  A
C1732      N1733   1.424       .  S
N1733      O1737   1.259       .  A
N1733      O1738   1.262       .  A
N1736      O1740   1.261       .  A
N1736      O1739   1.262       .  A
C1741      C1742   1.407       .  A
C1741      C1746   1.407   1_455  A
C1741      H1748   1.086       .  S
C1742      C1743   1.419       .  A
C1743      C1744   1.400   1_455  A
C1743      N1750   1.430       .  S
C1744      C1745   1.406       .  A
C1744      H1749   1.087       .  S
C1745      C1746   1.417       .  A
C1746      N1747   1.428       .  S
N1747      O1751   1.262       .  A
N1747      O1752   1.262   1_565  A
N1750      O1754   1.262       .  A
N1750      O1753   1.262       .  A
C1755      C1756   1.395       .  A
C1755      C1760   1.389       .  A
C1755      H1762   1.089       .  S
C1756      C1757   1.409       .  A
C1757      C1758   1.395       .  A
C1757      N1764   1.428       .  S
C1758      C1759   1.403       .  A
C1758      H1763   1.090       .  S
C1759      C1760   1.418       .  A
C1760      N1761   1.430       .  S
N1761      O1765   1.261       .  A
N1761      O1766   1.262       .  A
N1764      O1768   1.262       .  A
N1764      O1767   1.262       .  A
C1769      C1770   1.399       .  A
C1769      C1774   1.407       .  A
C1769      H1776   1.087       .  S
C1770      C1771   1.429       .  A
C1771      C1772   1.401       .  A
C1771      N1778   1.429       .  S
C1772      C1773   1.392       .  A
C1772      H1777   1.087       .  S
C1773      C1774   1.421       .  A
C1774      N1775   1.429       .  S
N1775      O1779   1.262       .  A
N1775      O1780   1.262       .  A
N1778      O1782   1.262       .  A
N1778      O1781   1.262       .  A
C1783      C1784   1.416       .  A
C1783      C1788   1.408       .  A
C1783      H1790   1.084       .  S
C1785      C1786   1.410   1_545  A
C1785      N1792   1.427   1_545  S
C1786      C1787   1.414   1_565  A
C1786      H1791   1.084       .  S
C1788      N1789   1.429       .  S
N1789      O1793   1.262       .  A
N1789      O1794   1.262       .  A
N1792      O1796   1.262       .  A
N1792      O1795   1.262       .  A
C1797      C1798   1.397       .  A
C1797      C1802   1.395       .  A
C1797      H1804   1.087       .  S
C1798      C1799   1.419       .  A
C1799      C1800   1.407       .  A
C1799      N1806   1.427       .  S
C1800      C1801   1.398       .  A
C1801      C1802   1.415       .  A
C1802      N1803   1.429       .  S
N1803      O1807   1.262       .  A
N1803      O1808   1.262       .  A
N1806      O1810   1.262       .  A
N1806      O1809   1.262       .  A
C1811      C1812   1.407       .  A
C1811      C1816   1.407       .  A
C1811      H1818   1.086       .  S
C1812      C1813   1.410       .  A
C1813      C1814   1.397       .  A
C1813      N1820   1.429       .  S
C1814      C1815   1.402       .  A
C1814      H1819   1.086       .  S
C1815      C1816   1.409       .  A
C1816      N1817   1.427       .  S
N1817      O1821   1.262       .  A
N1817      O1822   1.262       .  A
N1820      O1824   1.262       .  A
N1820      O1823   1.262       .  A
C1825      C1826   1.412       .  A
C1825      C1830   1.403       .  A
C1825      H1832   1.088       .  S
C1826      C1827   1.409       .  A
C1827      C1828   1.403       .  A
C1827      N1834   1.428       .  S
C1828      C1829   1.410       .  A
C1828      H1833   1.088       .  S
C1829      C1830   1.406       .  A
C1830      N1831   1.428       .  S
N1831      O1835   1.262       .  A
N1831      O1836   1.262       .  A
N1834      O1838   1.262       .  A
N1834      O1837   1.262       .  A
C1839      C1840   1.412       .  A
C1839      C1844   1.408       .  A
C1839      H1846   1.087       .  S
C1840      C1841   1.411       .  A
C1841      C1842   1.396       .  A
C1841      N1848   1.430       .  S
C1842      C1843   1.406       .  A
C1842      H1847   1.086       .  S
C1843      C1844   1.410       .  A
N1845      O1849   1.262       .  A
N1845      O1850   1.262       .  A
N1848      O1852   1.262       .  A
N1848      O1851   1.262       .  A
C1853      C1854   1.400       .  A
C1853      C1858   1.407       .  A
C1853      H1860   1.086       .  S
C1854      C1855   1.420       .  A
C1855      C1856   1.396       .  A
C1855      N1862   1.430       .  S
C1856      C1857   1.397       .  A
C1856      H1861   1.086       .  S
C1857      C1858   1.423       .  A
C1858      N1859   1.430       .  S
N1859      O1863   1.262       .  A
N1859      O1864   1.262       .  A
N1862      O1866   1.262       .  A
N1862      O1865   1.262       .  A
C1867      C1868   1.410       .  A
C1867      C1872   1.401       .  A
C1867      H1874   1.085       .  S
C1868      C1869   1.412       .  A
C1869      C1870   1.411       .  A
C1869      N1876   1.428       .  S
C1870      C1871   1.415       .  A
C1870      H1875   1.086       .  S
C1871      C1872   1.414       .  A
C1872      N1873   1.428       .  S
N1873      O1877   1.262       .  A
N1873      O1878   1.262       .  A
N1876      O1880   1.262       .  A
N1876      O1879   1.262       .  A
C1881      C1882   1.398       .  A
C1881      C1886   1.397       .  A
C1881      H1888   1.087       .  S
C1882      C1883   1.417       .  A
C1883      C1884   1.389       .  A
C1883      N1890   1.430       .  S
C1884      C1885   1.399       .  A
C1884      H1889   1.087       .  S
C1885      C1886   1.421       .  A
C1886      N1887   1.429       .  S
N1887      O1891   1.262       .  A
N1887      O1892   1.262       .  A
N1890      O1894   1.262       .  A
N1890      O1893   1.262       .  A
C1895      C1896   1.413       .  A
C1895      C1900   1.406       .  A
C1895      H1902   1.084       .  S
C1896      C1897   1.407       .  A
C1897      C1898   1.406       .  A
C1897      N1904   1.428       .  S
C1898      C1899   1.414       .  A
C1898      H1903   1.084       .  S
C1899      C1900   1.408       .  A
C1900      N1901   1.428       .  S
N1901      O1905   1.262       .  A
N1901      O1906   1.262       .  A
N1904      O1908   1.262       .  A
N1904      O1907   1.262       .  A
C1909      C1910   1.404       .  A
C1909      C1914   1.408       .  A
C1909      H1916   1.086       .  S
C1910      C1911   1.409       .  A
C1911      C1912   1.393       .  A
C1911      N1918   1.429       .  S
C1912      C1913   1.401       .  A
C1912      H1917   1.087       .  S
C1913      C1914   1.410       .  A
C1914      N1915   1.427       .  S
N1915      O1919   1.262       .  A
N1915      O1920   1.262       .  A
N1918      O1922   1.262       .  A
N1918      O1921   1.262       .  A
C1923      C1924   1.399       .  A
C1923      C1928   1.402       .  A
C1923      H1930   1.088       .  S
C1924      C1925   1.420       .  A
C1925      C1926   1.395       .  A
C1925      N1932   1.430       .  S
C1926      C1927   1.398       .  A
C1926      H1931   1.089       .  S
C1927      C1928   1.419       .  A
C1928      N1929   1.428       .  S
N1929      O1933   1.261       .  A
N1929      O1934   1.262       .  A
N1932      O1936   1.262       .  A
N1932      O1935   1.262       .  A
C1937      C1942   1.411       .  A
C1937      H1944   1.085       .  S
C1938      C1939   1.424       .  A
C1939      C1940   1.413       .  A
C1939      N1946   1.427       .  S
C1940      H1945   1.086       .  S
C1941      C1942   1.425       .  A
C1942      N1943   1.428       .  S
N1943      O1947   1.262       .  A
N1943      O1948   1.262       .  A
N1946      O1950   1.262       .  A
N1946      O1949   1.261       .  A
C1951      C1952   1.405       .  A
C1951      C1956   1.397   1_655  A
C1951      H1958   1.085       .  S
C1952      C1953   1.416       .  A
C1953      C1954   1.401   1_655  A
C1953      N1960   1.429       .  S
C1954      C1955   1.405       .  A
C1954      H1959   1.085       .  S
C1955      C1956   1.414       .  A
C1956      N1957   1.429       .  S
N1957      O1961   1.262       .  A
N1957      O1962   1.262       .  A
N1960      O1964   1.262       .  A
N1960      O1963   1.262       .  A
C1965      C1966   1.407       .  A
C1965      C1970   1.414       .  A
C1965      H1972   1.086       .  S
C1966      C1967   1.420       .  A
C1967      C1968   1.400       .  A
C1967      N1974   1.425       .  S
C1968      C1969   1.397       .  A
C1968      H1973   1.087       .  S
C1969      C1970   1.415       .  A
C1970      N1971   1.426       .  S
N1971      O1975   1.262       .  A
N1971      O1976   1.262       .  A
N1974      O1978   1.262       .  A
N1974      O1977   1.261       .  A
C1979      C1980   1.402       .  A
C1979      C1984   1.411       .  A
C1979      H1986   1.085       .  S
C1980      C1981   1.426       .  A
C1981      C1982   1.411       .  A
C1981      N1988   1.427       .  S
C1982      C1983   1.402       .  A
C1982      H1987   1.084       .  S
C1983      C1984   1.425       .  A
C1984      N1985   1.427       .  S
N1985      O1989   1.262       .  A
N1985      O1990   1.261       .  A
N1988      O1992   1.261       .  A
N1988      O1991   1.262       .  A
C1993      C1994   1.408       .  A
C1993      C1998   1.411       .  A
C1993      H2000   1.085       .  S
C1994      C1995   1.411       .  A
C1995      C1996   1.397       .  A
C1995      N2002   1.431       .  S
C1996      C1997   1.404       .  A
C1996      H2001   1.086       .  S
C1997      C1998   1.411       .  A
C1998      N1999   1.427       .  S
N1999      O2003   1.262       .  A
N1999      O2004   1.262       .  A
N2002      O2006   1.262       .  A
N2002      O2005   1.262       .  A
C2007      C2008   1.398       .  A
C2007      C2012   1.391       .  A
C2007      H2014   1.087       .  S
C2008      C2009   1.411       .  A
C2009      C2010   1.413       .  A
C2009      N2016   1.427       .  S
C2010      C2011   1.409       .  A
C2010      H2015   1.086       .  S
C2011      C2012   1.411       .  A
C2012      N2013   1.426       .  S
N2013      O2017   1.261       .  A
N2013      O2018   1.262       .  A
N2016      O2020   1.262       .  A
N2016      O2019   1.262       .  A
C2021      C2022   1.406       .  A
C2021      C2026   1.401       .  A
C2021      H2028   1.086       .  S
C2022      C2023   1.414       .  A
C2023      C2024   1.400       .  A
C2023      N2030   1.428       .  S
C2024      C2025   1.406       .  A
C2024      H2029   1.086       .  S
C2025      C2026   1.416       .  A
C2026      N2027   1.429       .  S
N2027      O2031   1.262       .  A
N2027      O2032   1.262       .  A
N2030      O2034   1.262       .  A
N2030      O2033   1.262       .  A
C2035      C2036   1.398       .  A
C2035      C2040   1.392       .  A
C2035      H2042   1.086       .  S
C2036      C2037   1.422       .  A
C2037      C2038   1.389       .  A
C2037      N2044   1.430       .  S
C2038      C2039   1.395       .  A
C2038      H2043   1.086       .  S
C2039      C2040   1.417       .  A
C2040      N2041   1.429       .  S
N2041      O2045   1.262       .  A
N2041      O2046   1.262       .  A
N2044      O2048   1.261       .  A
N2044      O2047   1.262       .  A
