geometry optimzed in LAMMPS
_audit_creation_date              2020-12-01 
_audit_creation_method            'lammps2cif' 
_symmetry_space_group_name_H-M    'P1' 
_symmetry_Int_Tables_number       1 
_symmetry_cell_setting            triclinic 
loop_ 
_symmetry_equiv_pos_as_xyz 
  x,y,z 
_cell_length_a                    39.49023514 
_cell_length_b                    38.21659542327209 
_cell_length_c                    41.576403224337305 
_cell_angle_alpha                 89.83955597108795 
_cell_angle_beta                  118.12427042946027 
_cell_angle_gamma                 90.4238809026139 
loop_ 
_atom_site_label 
_atom_site_type_symbol 
_atom_site_fract_x 
_atom_site_fract_y 
_atom_site_fract_z 
_atom_site_charge 
O1          O  0.06536323  0.16884605  0.11445697    -0.82300
C2          C  0.13113030  0.15126594  0.26040643     0.97100
O3          O  0.12480639  0.13442206  0.23227726    -0.71400
O4          O  0.08499032  0.11722847  0.16344235    -0.75000
Al5        Al  0.12597805  0.15239600  0.19104012     1.49000
C6          C  0.04954946  0.11733030  0.15552551     0.92400
O7          O  0.02235300  0.20824132  0.17548023    -0.81200
O8          O  0.07713993  0.25507182  0.19081435    -0.74700
Al9        Al  0.04851603  0.18847957  0.14877874     1.90100
O10         O  0.06806914  0.20094220  0.23125553    -0.73800
O11         O  0.14921122  0.23328440  0.21775439    -0.73700
O12         O  0.13825057  0.18391694  0.26216466    -0.79300
O13         O  0.17319953  0.18134507  0.21887678    -0.77500
O14         O  0.09426111  0.18600724  0.18724493    -1.13700
O15         O  0.12791135  0.16735240  0.14930553    -0.72800
C16         C  0.09907707  0.16346909  0.11853074     0.97900
C17         C  0.03409035  0.20821319  0.20981704     0.94300
Al18       Al  0.10746654  0.21638873  0.22289320     1.55600
O19         O  0.03409385  0.14480679  0.15838825    -0.77500
C20         C  0.17739951  0.21465096  0.22279705     0.98400
C21         C  0.06022005  0.25823002  0.15613144     0.93300
O22         O  0.05930903  0.23278409  0.13664851    -0.82800
O23         O  0.06663828  0.00946394  0.38853388    -0.82300
C24         C  0.12797596  0.09566023  0.00976679     0.97100
O25         O  0.13708892  0.06357109  0.01245260    -0.71400
O26         O  0.06794836  0.04191681  0.47972667    -0.75000
Al27       Al  0.10961073  0.02951855  0.47387328     1.49000
C28         C  0.03491254  0.03215126  0.45743896     0.92400
O29         O  0.03325401  0.09553921  0.40421236    -0.81200
O30         O  0.13128074  0.08079145  0.40144175    -0.74700
Al31       Al  0.05174924  0.05312328  0.39775645     1.90100
O32         O  0.08362734  0.12702511  0.41249027    -0.73800
O33         O  0.17501365  0.06878245  0.47128388    -0.73700
O34         O  0.12177399  0.11234321  0.48153283    -0.79300
O35         O  0.15270550  0.01583833  0.47060781    -0.77500
O36         O  0.09603683  0.05902103  0.43746132    -1.13700
O37         O  0.08291544  0.48883089  0.44305532    -0.72800
C38         C  0.06737864  0.48448353  0.40864120     0.97900
C39         C  0.04792350  0.12432880  0.40298104     0.94300
Al40       Al  0.12615730  0.09480260  0.44169180     1.55600
O41         O  0.02473555  0.03163159  0.42336126    -0.77500
C42         C  0.18014464  0.03560895  0.47512132     0.98400
C43         C  0.10343428  0.08201734  0.36982093     0.93300
O44         O  0.06967598  0.07395385  0.36447599    -0.82800
O45         O  0.43526782  0.25405862  0.35327104    -0.82300
C46         C  0.37882224  0.34366161  0.23439448     0.97100
O47         O  0.36987684  0.31154355  0.23156318    -0.71400
O48         O  0.43971495  0.29132477  0.26606399    -0.75000
Al49       Al  0.39696105  0.27747328  0.26972269     1.49000
C50         C  0.47228431  0.28092834  0.28862932     0.92400
O51         O  0.47501320  0.34090197  0.34626925    -0.81200
O52         O  0.37456174  0.32770977  0.34225772    -0.74700
Al53       Al  0.45339642  0.29815514  0.34786389     1.90100
O54         O  0.42414322  0.37345780  0.33239083    -0.73800
O55         O  0.33208989  0.31580807  0.27286027    -0.73700
O56         O  0.38615285  0.35974919  0.26318682    -0.79300
O57         O  0.35297786  0.26294364  0.27139558    -0.77500
O58         O  0.41037294  0.30595227  0.30712612    -1.13700
O59         O  0.42233135  0.23617092  0.29883347    -0.72800
C60         C  0.43523684  0.23005610  0.33264557     0.97900
C61         C  0.46035606  0.37017533  0.34527260     0.94300
Al62       Al  0.38107460  0.34175374  0.30278167     1.55600
O63         O  0.48126005  0.27843722  0.32242760    -0.77500
C64         C  0.32622037  0.28270117  0.26812348     0.98400
C65         C  0.40144428  0.32705228  0.37433997     0.93300
O66         O  0.43482550  0.31737968  0.38067453    -0.82800
O67         O  0.43324432  0.42189772  0.12669566    -0.82300
C68         C  0.37274018  0.39777328  0.48150645     0.97100
O69         O  0.37783232  0.38224518  0.00985839    -0.71400
O70         O  0.41626957  0.36790439  0.07817761    -0.75000
Al71       Al  0.37522790  0.40145756  0.04978837     1.49000
C72         C  0.45220003  0.36928159  0.08841084     0.92400
O73         O  0.47921157  0.46048685  0.06788233    -0.81200
O74         O  0.42315475  0.00488230  0.04689492    -0.74700
Al75       Al  0.45121985  0.44112041  0.09334828     1.90100
O76         O  0.43664305  0.44876956  0.01170505    -0.73800
O77         O  0.35204188  0.48107461  0.01861437    -0.73700
O78         O  0.36601658  0.43034507  0.47835923    -0.79300
O79         O  0.32818851  0.42949685  0.02092377    -0.77500
O80         O  0.40686310  0.43569425  0.05350240    -1.13700
O81         O  0.37140441  0.41646138  0.09057017    -0.72800
C82         C  0.39973937  0.41398639  0.12176521     0.97900
C83         C  0.46976679  0.45833353  0.03403492     0.94300
Al84       Al  0.39502982  0.46434472  0.01652449     1.55600
O85         O  0.46848192  0.39751854  0.08807995    -0.77500
C86         C  0.32431411  0.46267056  0.01590958     0.98400
C87         C  0.43699182  0.01026889  0.08107597     0.93300
O88         O  0.43704014  0.48582929  0.10146381    -0.82800
C89         C  0.36265360  0.36604421  0.39157200    -0.21800
C90         C  0.39335444  0.34221820  0.40276930    -0.09800
C91         C  0.41640651  0.33614995  0.44018641     0.29100
C92         C  0.40849822  0.35358464  0.46552658    -0.21800
C93         C  0.37831829  0.37797263  0.45401783    -0.09800
C94         C  0.35551364  0.38404642  0.41682956     0.29100
F95         F  0.32622651  0.40723196  0.40490411    -0.20300
H96         H  0.34460162  0.37179694  0.36291257     0.17400
H97         H  0.42684268  0.34891294  0.49440765     0.17400
F98         F  0.44642703  0.31373219  0.45220517    -0.20300
C99         C  0.35941078  0.35439672  0.16873408    -0.21800
C100        C  0.38337046  0.36215701  0.20546088    -0.09800
C101        C  0.41346875  0.38667416  0.21477925     0.29100
C102        C  0.41854373  0.40398285  0.18763854    -0.21800
C103        C  0.39362779  0.39729020  0.15079945    -0.09800
C104        C  0.36429761  0.37178175  0.14157917     0.29100
F105        F  0.34132155  0.36235683  0.10634446    -0.20300
H106        H  0.33692326  0.33486447  0.16106820     0.17400
H107        H  0.44207750  0.42240783  0.19540364     0.17400
F108        F  0.43916420  0.39265930  0.25021066    -0.20300
C109        C  0.28626680  0.01819808  0.00481453    -0.21800
C110        C  0.28746898  0.48116604  0.00607282    -0.09800
C111        C  0.25333596  0.46290268  0.99728513     0.29100
C112        C  0.21913141  0.48105285  0.48714418    -0.21800
C113        C  0.21775084  0.01812326  0.48568521    -0.09800
C114        C  0.25199703  0.03654651  0.49486999     0.29100
F115        F  0.25256696  0.07205708  0.49449590    -0.20300
H116        H  0.31212619  0.03327110  0.01167420     0.17400
H117        H  0.19345384  0.46571235  0.48035079     0.17400
F118        F  0.25267709  0.42741724  0.99809161    -0.20300
C119        C  0.49576058  0.48298359  0.46119803    -0.21800
C120        C  0.01304657  0.01573485  0.47391527    -0.09800
C121        C  0.02013826  0.02691195  0.00892521     0.29100
C122        C  0.01096623  0.50552311  0.03091634    -0.21800
C123        C  0.49250074  0.47343903  0.01777717    -0.09800
C124        C  0.48544515  0.46201995  0.48283997     0.29100
F125        F  0.46785454  0.43078611  0.46939171    -0.20300
H126        H  0.49184267  0.47301834  0.43532845     0.17400
H127        H  0.01656247  0.51473323  0.05749113     0.17400
F128        F  0.03717402  0.05837114  0.02229367    -0.20300
C129        C  0.52033716  0.39519045  0.39501348    -0.21800
C130        C  0.48707619  0.39980951  0.36134883    -0.09800
C131        C  0.98180223  0.43138664  0.34260988     0.29100
C132        C  0.00960942  0.45782958  0.35722214    -0.21800
C133        C  0.04264405  0.45361994  0.39131103    -0.09800
C134        C  0.04760337  0.42204903  0.41023493     0.29100
F135        F  0.07857483  0.41723274  0.44339315    -0.20300
H136        H  0.52491135  0.37080850  0.40976962     0.17400
H137        H  0.00445843  0.48223920  0.34239449     0.17400
F138        F  0.95022792  0.43637711  0.30994536    -0.20300
C139        C  0.00400184  0.16907354  0.40503644    -0.21800
C140        C  0.02104313  0.15303276  0.38604081    -0.09800
C141        C  0.00502833  0.15783373  0.34823486     0.29100
C142        C  0.47388500  0.18020444  0.33005684    -0.21800
C143        C  0.45865963  0.19865509  0.34942757    -0.09800
C144        C  0.47323893  0.19198788  0.38701312     0.29100
F145        F  0.45832925  0.20813958  0.40651968    -0.20300
H146        H  0.01435367  0.16370896  0.43358289     0.17400
H147        H  0.46304554  0.18444766  0.30110471     0.17400
F148        F  0.01904927  0.14023986  0.32878187    -0.20300
C149        C  0.09250322  0.11154232  0.27786202    -0.21800
C150        C  0.12542428  0.13284810  0.28871893    -0.09800
C151        C  0.15138531  0.13601684  0.32575744     0.29100
C152        C  0.14449833  0.11809225  0.35150364    -0.21800
C153        C  0.11106934  0.09731805  0.34091826    -0.09800
C154        C  0.08505469  0.09425515  0.30366977     0.29100
F155        F  0.05257037  0.07471739  0.29218443    -0.20300
H156        H  0.07198796  0.10897649  0.24923625     0.17400
H157        H  0.16502504  0.12135123  0.37999442     0.17400
F158        F  0.18361999  0.15588315  0.33699017    -0.20300
C159        C  0.09116981  0.13795546  0.02680455    -0.21800
C160        C  0.12130832  0.11352173  0.03775071    -0.09800
C161        C  0.14327587  0.10588380  0.07478733     0.29100
C162        C  0.13590480  0.12295759  0.10045431    -0.21800
C163        C  0.10585891  0.14738418  0.08973813    -0.09800
C164        C  0.08314887  0.15447255  0.05255502     0.29100
F165        F  0.05392248  0.17770714  0.04123116    -0.20300
H166        H  0.07344091  0.14376278  0.99826733     0.17400
H167        H  0.15346685  0.11652230  0.12895248     0.17400
F168        F  0.17231529  0.08245675  0.08624327    -0.20300
C169        C  0.47870181  0.05948456  0.08098716    -0.21800
C170        C  0.46086336  0.04168111  0.09858845    -0.09800
C171        C  0.97288018  0.04919061  0.13562002     0.29100
C172        C  0.00360411  0.07227281  0.15487152    -0.21800
C173        C  0.02341637  0.08767563  0.13790141    -0.09800
C174        C  0.51001688  0.08183954  0.10048729     0.29100
F175        F  0.52627974  0.09889454  0.08248035    -0.20300
H176        H  0.46935794  0.05502036  0.05224161     0.17400
H177        H  0.01173396  0.07849875  0.18304972     0.17400
F178        F  0.95498696  0.53420145  0.15322702    -0.20300
C179        C  0.02972612  0.31418383  0.15922482    -0.21800
C180        C  0.03530580  0.28868785  0.13799884    -0.09800
C181        C  0.01179391  0.28943251  0.09961979     0.29100
C182        C  0.48314839  0.31468590  0.08343116    -0.21800
C183        C  0.47731941  0.33934146  0.10503003    -0.09800
C184        C  0.00119538  0.33936956  0.14291932     0.29100
F185        F  0.99701712  0.36410864  0.16413227    -0.20300
H186        H  0.04683056  0.31412859  0.18870108     0.17400
H187        H  0.46592959  0.31532253  0.05404196     0.17400
F188        F  0.01575905  0.26542071  0.07763155    -0.20300
C189        C  0.25515062  0.28579452  0.24847370    -0.21800
C190        C  0.28810613  0.26585455  0.25769636    -0.09800
C191        C  0.28434371  0.22886612  0.25633984     0.29100
C192        C  0.24850524  0.21265073  0.24448478    -0.21800
C193        C  0.21538863  0.23245437  0.23459346    -0.09800
C194        C  0.21931856  0.26947080  0.23743799     0.29100
F195        F  0.18866273  0.29018985  0.22975023    -0.20300
H196        H  0.25703950  0.31408789  0.24972545     0.17400
H197        H  0.24683803  0.18434140  0.24355203     0.17400
F198        F  0.31541939  0.20791980  0.26697468    -0.20300
C199        C  0.01270410  0.23352306  0.28507317    -0.21800
C200        C  0.49454820  0.26562031  0.27220403    -0.09800
C201        C  0.48681558  0.27691551  0.23699349     0.29100
C202        C  0.49536323  0.25572766  0.21461033    -0.21800
C203        C  0.01281848  0.22335584  0.22716980    -0.09800
C204        C  0.02145726  0.21234438  0.26270204     0.29100
F205        F  0.03955435  0.18148843  0.27614555    -0.20300
H206        H  0.01855458  0.22416593  0.31176140     0.17400
H207        H  0.49034156  0.26551332  0.18829811     0.17400
F208        F  0.46976738  0.30821104  0.22376163    -0.20300
O209        O  0.06541821  0.16883632  0.61451105    -0.82300
C210        C  0.13118529  0.15128082  0.76045632     0.97100
O211        O  0.12487047  0.13443637  0.73233014    -0.71400
O212        O  0.08505399  0.11724163  0.66349702    -0.75000
Al213      Al  0.12604374  0.15240877  0.69109117     1.49000
C214        C  0.04961792  0.11734181  0.65559786     0.92400
O215        O  0.02241877  0.20827738  0.67554319    -0.81200
O216        O  0.07720746  0.25509066  0.69084172    -0.74700
Al217      Al  0.04857613  0.18848498  0.64883722     1.90100
O218        O  0.06814717  0.20096178  0.73130217    -0.73800
O219        O  0.14928721  0.23329932  0.71780329    -0.73700
O220        O  0.13831305  0.18393179  0.76221661    -0.79300
O221        O  0.17326979  0.18135753  0.71892717    -0.77500
O222        O  0.09432921  0.18602256  0.68729475    -1.13700
O223        O  0.12797020  0.16736142  0.64935058    -0.72800
C224        C  0.09913316  0.16347278  0.61857716     0.97900
C225        C  0.03417722  0.20827093  0.70988410     0.94300
Al226      Al  0.10753753  0.21640740  0.72293753     1.55600
O227        O  0.03416983  0.14481643  0.65847820    -0.77500
C228        C  0.17747644  0.21466295  0.72285443     0.98400
C229        C  0.06026804  0.25823236  0.65615507     0.93300
O230        O  0.05935868  0.23277908  0.63668180    -0.82800
O231        O  0.06655043  0.00947746  0.88850088    -0.82300
C232        C  0.12800363  0.09570342  0.50976815     0.97100
O233        O  0.13712324  0.06361659  0.51245659    -0.71400
O234        O  0.06791629  0.04187810  0.97973430    -0.75000
Al235      Al  0.10957235  0.02948337  0.97386239     1.49000
C236        C  0.03487328  0.03213289  0.95744483     0.92400
O237        O  0.03326540  0.09556681  0.90427751    -0.81200
O238        O  0.13126361  0.08075101  0.90144680    -0.74700
Al239      Al  0.05171102  0.05314091  0.89776740     1.90100
O240        O  0.08364702  0.12701263  0.91251038    -0.73800
O241        O  0.17499314  0.06873912  0.97129235    -0.73700
O242        O  0.12177388  0.11230861  0.98154373    -0.79300
O243        O  0.15266810  0.01579863  0.97059046    -0.77500
O244        O  0.09600996  0.05900044  0.93746534    -1.13700
O245        O  0.08298123  0.48885852  0.94308651    -0.72800
C246        C  0.06745636  0.48449598  0.90867561     0.97900
C247        C  0.04795036  0.12434498  0.90303634     0.94300
Al248      Al  0.12615161  0.09476961  0.94170289     1.55600
O249        O  0.02468981  0.03164213  0.92336541    -0.77500
C250        C  0.18011519  0.03556563  0.97511669     0.98400
C251        C  0.10341523  0.08200627  0.86982765     0.93300
O252        O  0.06964795  0.07397725  0.86448705    -0.82800
O253        O  0.43537168  0.25407758  0.85331679    -0.82300
C254        C  0.37886948  0.34369420  0.73444776     0.97100
O255        O  0.36994253  0.31157345  0.73162101    -0.71400
O256        O  0.43980481  0.29138879  0.76611497    -0.75000
Al257      Al  0.39705458  0.27751220  0.76977532     1.49000
C258        C  0.47238750  0.28102328  0.78868904     0.92400
O259        O  0.47509620  0.34094256  0.84634935    -0.81200
O260        O  0.37464767  0.32771409  0.84231375    -0.74700
Al261      Al  0.45348658  0.29818888  0.84792393     1.90100
O262        O  0.42421707  0.37348921  0.83245415    -0.73800
O263        O  0.33217574  0.31581488  0.77292371    -0.73700
O264        O  0.38622023  0.35977896  0.76324648    -0.79300
O265        O  0.35307710  0.26295749  0.77145387    -0.77500
O266        O  0.41046206  0.30598412  0.80718429    -1.13700
O267        O  0.42244241  0.23621973  0.79887017    -0.72800
C268        C  0.43533712  0.23008838  0.83267602     0.97900
C269        C  0.46043261  0.37021230  0.84534850     0.94300
Al270      Al  0.38115423  0.34177381  0.80284307     1.55600
O271        O  0.48135546  0.27851085  0.82248393    -0.77500
C272        C  0.32631221  0.28270720  0.76818044     0.98400
C273        C  0.40152937  0.32706853  0.87439506     0.93300
O274        O  0.43491035  0.31739243  0.88073541    -0.82800
O275        O  0.43319116  0.42190442  0.62669931    -0.82300
C276        C  0.37277499  0.39784062  0.98149794     0.97100
O277        O  0.37781605  0.38218678  0.50987785    -0.71400
O278        O  0.41624608  0.36787322  0.57821201    -0.75000
Al279      Al  0.37519764  0.40141799  0.54979854     1.49000
C280        C  0.45218016  0.36926027  0.58846040     0.92400
O281        O  0.47917481  0.46044913  0.56788432    -0.81200
O282        O  0.42317339  0.00493809  0.54690960    -0.74700
Al283      Al  0.45117870  0.44110274  0.59335572     1.90100
O284        O  0.43661285  0.44869563  0.51171424    -0.73800
O285        O  0.35200489  0.48102835  0.51859781    -0.73700
O286        O  0.36605213  0.43041233  0.97835514    -0.79300
O287        O  0.32815438  0.42945026  0.52091465    -0.77500
O288        O  0.40682786  0.43565653  0.55350697    -1.13700
O289        O  0.37135625  0.41644271  0.59056320    -0.72800
C290        C  0.39968462  0.41399369  0.62176429     0.97900
C291        C  0.46973097  0.45827973  0.53403753     0.94300
Al292      Al  0.39499601  0.46428905  0.51651780     1.55600
O293        O  0.46845325  0.39749944  0.58812211    -0.77500
C294        C  0.32427699  0.46262379  0.51589373     0.98400
C295        C  0.43701323  0.01031506  0.58109209     0.93300
O296        O  0.43699277  0.48582013  0.60144486    -0.82800
C297        C  0.36273922  0.36609037  0.89159232    -0.21800
C298        C  0.39343863  0.34225980  0.90281053    -0.09800
C299        C  0.41648998  0.33621573  0.94023124     0.29100
C300        C  0.40856887  0.35366503  0.96555427    -0.21800
C301        C  0.37838114  0.37804679  0.95402428    -0.09800
C302        C  0.35559017  0.38411052  0.91683313     0.29100
F303        F  0.32630545  0.40729964  0.90488853    -0.20300
H304        H  0.34469374  0.37183101  0.86292877     0.17400
H305        H  0.42690743  0.34900729  0.99443986     0.17400
F306        F  0.44652079  0.31380803  0.95226919    -0.20300
C307        C  0.35933123  0.35449189  0.66877647    -0.21800
C308        C  0.38337623  0.36219450  0.70549988    -0.09800
C309        C  0.41351419  0.38665996  0.71479876     0.29100
C310        C  0.41855598  0.40397163  0.68764309    -0.21800
C311        C  0.39356937  0.39733004  0.65080899    -0.09800
C312        C  0.36418455  0.37188012  0.64160537     0.29100
F313        F  0.34112362  0.36250844  0.60637030    -0.20300
H314        H  0.33680574  0.33500039  0.66112675     0.17400
H315        H  0.44212794  0.42235019  0.69539275     0.17400
F316        F  0.43928094  0.39258317  0.75022173    -0.20300
C317        C  0.28629897  0.01823754  0.50484288    -0.21800
C318        C  0.28742898  0.48111753  0.50605315    -0.09800
C319        C  0.25330044  0.46285214  0.49728116     0.29100
C320        C  0.21916683  0.48110631  0.98713576    -0.21800
C321        C  0.21772127  0.01808058  0.98567707    -0.09800
C322        C  0.25196420  0.03650542  0.99484671     0.29100
F323        F  0.25252982  0.07201606  0.99445950    -0.20300
H324        H  0.31216131  0.03331039  0.51171212     0.17400
H325        H  0.19348502  0.46576668  0.98032687     0.17400
F326        F  0.25264560  0.42736690  0.49808983    -0.20300
C327        C  0.49582902  0.48301870  0.96121535    -0.21800
C328        C  0.01300174  0.01570804  0.97391503    -0.09800
C329        C  0.02018372  0.02695456  0.50892056     0.29100
C330        C  0.01090722  0.50547377  0.53090583    -0.21800
C331        C  0.49244832  0.47339824  0.51776782    -0.09800
C332        C  0.48550269  0.46205936  0.98285152     0.29100
F333        F  0.46790367  0.43082986  0.96939857    -0.20300
H334        H  0.49190910  0.47305478  0.93534464     0.17400
H335        H  0.01650455  0.51467794  0.55748249     0.17400
F336        F  0.03721915  0.05841702  0.52227618    -0.20300
C337        C  0.52040130  0.39523459  0.89510415    -0.21800
C338        C  0.48715085  0.39984792  0.86142878    -0.09800
C339        C  0.98186733  0.43140443  0.84265658     0.29100
C340        C  0.00968370  0.45784072  0.85726120    -0.21800
C341        C  0.04271454  0.45363424  0.89135367    -0.09800
C342        C  0.04766092  0.42207263  0.91028946     0.29100
F343        F  0.07863253  0.41725766  0.94344814    -0.20300
H344        H  0.52496077  0.37086155  0.90987126     0.17400
H345        H  0.00454393  0.48224316  0.84242283     0.17400
F346        F  0.95030276  0.43638718  0.80998280    -0.20300
C347        C  0.00387747  0.16896626  0.90502162    -0.21800
C348        C  0.02109260  0.15306463  0.88610890    -0.09800
C349        C  0.00526942  0.15801166  0.84834067     0.29100
C350        C  0.47413548  0.18036112  0.83012996    -0.21800
C351        C  0.45874406  0.19868088  0.84943560    -0.09800
C352        C  0.47314787  0.19188953  0.88697421     0.29100
F353        F  0.45807915  0.20792779  0.90640472    -0.20300
H354        H  0.01408999  0.16349285  0.93352796     0.17400
H355        H  0.46342489  0.18470154  0.80120948     0.17400
F356        F  0.01947485  0.14056790  0.82895512    -0.20300
C357        C  0.09245708  0.11165515  0.77788643    -0.21800
C358        C  0.12545029  0.13286346  0.78875526    -0.09800
C359        C  0.15147449  0.13590776  0.82578880     0.29100
C360        C  0.14457170  0.11796812  0.85151954    -0.21800
C361        C  0.11106607  0.09730154  0.84092712    -0.09800
C362        C  0.08499577  0.09435319  0.80368092     0.29100
F363        F  0.05244154  0.07491667  0.79218457    -0.20300
H364        H  0.07190042  0.10917672  0.74926412     0.17400
H365        H  0.16515026  0.12113369  0.88000667     0.17400
F366        F  0.18378574  0.15566454  0.83702940    -0.20300
C367        C  0.09118364  0.13796254  0.52682838    -0.21800
C368        C  0.12135676  0.11356839  0.53776436    -0.09800
C369        C  0.14337746  0.10596952  0.57480435     0.29100
C370        C  0.13600893  0.12302973  0.60048115    -0.21800
C371        C  0.10591799  0.14740768  0.58977418    -0.09800
C372        C  0.08316904  0.15446777  0.55258941     0.29100
F373        F  0.05390614  0.17766185  0.54127185    -0.20300
H374        H  0.07342028  0.14374422  0.49829075     0.17400
H375        H  0.15360869  0.11661999  0.62898002     0.17400
F376        F  0.17246501  0.08259414  0.58625302    -0.20300
C377        C  0.47876639  0.05950130  0.58103165    -0.21800
C378        C  0.46089128  0.04172055  0.59861180    -0.09800
C379        C  0.97289694  0.04924729  0.63564587     0.29100
C380        C  0.00363343  0.07231211  0.65491367    -0.21800
C381        C  0.02347820  0.08769381  0.63796470    -0.09800
C382        C  0.51009454  0.08183739  0.60054898     0.29100
F383        F  0.52639720  0.09886722  0.58256351    -0.20300
H384        H  0.46943988  0.05503302  0.55229012     0.17400
H385        H  0.01174710  0.07854206  0.68308711     0.17400
F386        F  0.95493014  0.53420607  0.65317611    -0.20300
C387        C  0.02988365  0.31426142  0.65923676    -0.21800
C388        C  0.03532651  0.28867434  0.63801130    -0.09800
C389        C  0.01166905  0.28932648  0.59964930     0.29100
C390        C  0.48301482  0.31458623  0.58348543    -0.21800
C391        C  0.47731522  0.33932893  0.60508831    -0.09800
C392        C  0.00135179  0.33944999  0.64295151     0.29100
F393        F  0.99732797  0.36429371  0.66415852    -0.20300
H394        H  0.04710893  0.31428524  0.68870075     0.17400
H395        H  0.46569287  0.31515549  0.55410629     0.17400
F396        F  0.01551358  0.26524009  0.57765646    -0.20300
C397        C  0.25526416  0.28579351  0.74864058    -0.21800
C398        C  0.28819559  0.26585507  0.75774530    -0.09800
C399        C  0.28440761  0.22886756  0.75628249     0.29100
C400        C  0.24856596  0.21265810  0.74443556    -0.21800
C401        C  0.21547238  0.23246259  0.73466116    -0.09800
C402        C  0.21943248  0.26947305  0.73762036     0.29100
F403        F  0.18881014  0.29018921  0.73007372    -0.20300
H404        H  0.25717342  0.31408386  0.74998384     0.17400
H405        H  0.24687863  0.18435095  0.74341356     0.17400
F406        F  0.31546082  0.20791378  0.76680325    -0.20300
C407        C  0.01290885  0.23369942  0.78519300    -0.21800
C408        C  0.49468529  0.26575657  0.77228011    -0.09800
C409        C  0.48691821  0.27701822  0.73705004     0.29100
C410        C  0.49546114  0.25580921  0.71467603    -0.21800
C411        C  0.01295711  0.22346601  0.72726809    -0.09800
C412        C  0.02166270  0.21250682  0.76283416     0.29100
F413        F  0.03982112  0.18168482  0.77632228    -0.20300
H414        H  0.01881154  0.22437701  0.81190601     0.17400
H415        H  0.49040334  0.26556271  0.68834238     0.17400
F416        F  0.46983243  0.30829413  0.72378932    -0.20300
O417        O  0.06541442  0.66882377  0.11450898    -0.82300
C418        C  0.13118661  0.65127743  0.26045665     0.97100
O419        O  0.12487323  0.63443226  0.23233127    -0.71400
O420        O  0.08505783  0.61723179  0.16349998    -0.75000
Al421      Al  0.12604318  0.65240306  0.19109052     1.49000
C422        C  0.04962192  0.61732851  0.15560115     0.92400
O423        O  0.02241149  0.70826213  0.17553954    -0.81200
O424        O  0.07719512  0.75508016  0.19083340    -0.74700
Al425      Al  0.04857059  0.68847117  0.14883437     1.90100
O426        O  0.06814154  0.70095127  0.23129837    -0.73800
O427        O  0.14927915  0.73329661  0.21779844    -0.73700
O428        O  0.13830956  0.68392919  0.26221455    -0.79300
O429        O  0.17326557  0.68135628  0.21892399    -0.77500
O430        O  0.09432489  0.68601412  0.18729171    -1.13700
O431        O  0.12796704  0.66735366  0.14934809    -0.72800
C432        C  0.09912988  0.66346375  0.11857491     0.97900
C433        C  0.03417078  0.70825760  0.20988058     0.94300
Al434      Al  0.10753003  0.71640080  0.22293258     1.55600
O435        O  0.03417030  0.64480162  0.15847937    -0.77500
C436        C  0.17747046  0.71466170  0.22285233     0.98400
C437        C  0.06025436  0.75821957  0.15614646     0.93300
O438        O  0.05934628  0.73276568  0.13667450    -0.82800
O439        O  0.06656023  0.50946155  0.38850551    -0.82300
C440        C  0.12801191  0.59570931  0.00976599     0.97100
O441        O  0.13713116  0.56362238  0.01245456    -0.71400
O442        O  0.06790373  0.54187976  0.47972413    -0.75000
Al443      Al  0.10956464  0.52948026  0.47386245     1.49000
C444        C  0.03486373  0.53212758  0.45743414     0.92400
O445        O  0.03325924  0.59555272  0.40425686    -0.81200
O446        O  0.13126711  0.58073779  0.40144602    -0.74700
Al447      Al  0.05171195  0.55312600  0.39775970     1.90100
O448        O  0.08364342  0.62700056  0.41249900    -0.73800
O449        O  0.17498855  0.56873075  0.47129293    -0.73700
O450        O  0.12176501  0.61230553  0.48153374    -0.79300
O451        O  0.15266371  0.51579169  0.47059957    -0.77500
O452        O  0.09600663  0.55899177  0.43746111    -1.13700
O453        O  0.08297425  0.98885487  0.44308548    -0.72800
C454        C  0.06744846  0.98449433  0.40867434     0.97900
C455        C  0.04794545  0.62433143  0.40301899     0.94300
Al456      Al  0.12614816  0.59476037  0.44169758     1.55600
O457        O  0.02468506  0.53163060  0.42335556    -0.77500
C458        C  0.18011038  0.53555742  0.47512230     0.98400
C459        C  0.10342117  0.58199140  0.36982557     0.93300
O460        O  0.06965375  0.57395855  0.36448163    -0.82800
O461        O  0.43536939  0.75407480  0.35331442    -0.82300
C462        C  0.37886941  0.84368912  0.23444255     0.97100
O463        O  0.36994149  0.81156882  0.23161679    -0.71400
O464        O  0.43980290  0.79138338  0.26611224    -0.75000
Al465      Al  0.39705131  0.77750869  0.26977178     1.49000
C466        C  0.47238432  0.78101482  0.28868583     0.92400
O467        O  0.47509426  0.84093897  0.34634337    -0.81200
O468        O  0.37464803  0.82771860  0.34231349    -0.74700
Al469      Al  0.45348438  0.79818597  0.34792005     1.90100
O470        O  0.42421551  0.87348698  0.33244644    -0.73800
O471        O  0.33217253  0.81581302  0.27292247    -0.73700
O472        O  0.38621624  0.85977505  0.26323970    -0.79300
O473        O  0.35307229  0.76295597  0.27144857    -0.77500
O474        O  0.41045899  0.80598125  0.30718062    -1.13700
O475        O  0.42243710  0.73621609  0.29886718    -0.72800
C476        C  0.43533397  0.73008512  0.33267336     0.97900
C477        C  0.46043098  0.87020915  0.34534206     0.94300
Al478      Al  0.38115195  0.84177245  0.30283875     1.55600
O479        O  0.48135242  0.77850420  0.32248075    -0.77500
C480        C  0.32630785  0.78270560  0.26817663     0.98400
C481        C  0.40153223  0.82707500  0.37439404     0.93300
O482        O  0.43491086  0.81739346  0.38073220    -0.82800
O483        O  0.43320031  0.92189311  0.12669641    -0.82300
C484        C  0.37278420  0.89784875  0.48150387     0.97100
O485        O  0.37781256  0.88219273  0.00987149    -0.71400
O486        O  0.41624380  0.86787066  0.07820151    -0.75000
Al487      Al  0.37519912  0.90142041  0.04979449     1.49000
C488        C  0.45217766  0.86925388  0.08844826     0.92400
O489        O  0.47918328  0.96044570  0.06788727    -0.81200
O490        O  0.42317920  0.50492544  0.04691201    -0.74700
Al491      Al  0.45118584  0.94109515  0.09335443     1.90100
O492        O  0.43662152  0.94869794  0.01171621    -0.73800
O493        O  0.35201335  0.98103450  0.01859812    -0.73700
O494        O  0.36605263  0.93041873  0.47836015    -0.79300
O495        O  0.32815938  0.92945839  0.02091521    -0.77500
O496        O  0.40683319  0.93565614  0.05350567    -1.13700
O497        O  0.37136322  0.91644038  0.09056372    -0.72800
C498        C  0.39969411  0.91398507  0.12176284     0.97900
C499        C  0.46973985  0.95828023  0.03404071     0.94300
Al500      Al  0.39500480  0.96429251  0.01651977     1.55600
O501        O  0.46845442  0.89749159  0.08811170    -0.77500
C502        C  0.32428386  0.96263184  0.01589292     0.98400
C503        C  0.43702332  0.51029752  0.08109593     0.93300
O504        O  0.43700323  0.98580999  0.10145064    -0.82800
C505        C  0.36275239  0.86610757  0.39159541    -0.21800
C506        C  0.39344796  0.84227299  0.40281156    -0.09800
C507        C  0.41650048  0.83622859  0.44023224     0.29100
C508        C  0.40858074  0.85367712  0.46555688    -0.21800
C509        C  0.37839299  0.87805877  0.45402880    -0.09800
C510        C  0.35560410  0.88412641  0.41683781     0.29100
F511        F  0.32632036  0.90731653  0.40489468    -0.20300
H512        H  0.34470770  0.87185008  0.36293227     0.17400
H513        H  0.42691884  0.84901755  0.49444160     0.17400
F514        F  0.44653012  0.81381969  0.45226881    -0.20300
C515        C  0.35936768  0.85445277  0.16877252    -0.21800
C516        C  0.38338058  0.86218717  0.20549501    -0.09800
C517        C  0.41349581  0.88667877  0.21479428     0.29100
C518        C  0.41854151  0.90398733  0.18763928    -0.21800
C519        C  0.39358223  0.89731575  0.15080581    -0.09800
C520        C  0.36422647  0.87183672  0.14160237     0.29100
F521        F  0.34120174  0.86243402  0.10636987    -0.20300
H522        H  0.33686382  0.83493959  0.16112281     0.17400
H523        H  0.44209360  0.92238883  0.19538899     0.17400
F524        F  0.43923794  0.89263251  0.25021838    -0.20300
C525        C  0.28630638  0.51823753  0.00484997    -0.21800
C526        C  0.28743569  0.98112698  0.00604946    -0.09800
C527        C  0.25330588  0.96286171  0.99727207     0.29100
C528        C  0.21916367  0.98110377  0.48713928    -0.21800
C529        C  0.21771573  0.51807127  0.48568359    -0.09800
C530        C  0.25195776  0.53649580  0.49484987     0.29100
F531        F  0.25252319  0.57200636  0.49446053    -0.20300
H532        H  0.31217014  0.53330879  0.01172352     0.17400
H533        H  0.19348314  0.96576307  0.48033432     0.17400
F534        F  0.25264984  0.92737637  0.99807574    -0.20300
C535        C  0.49581969  0.98301926  0.46121518    -0.21800
C536        C  0.01299249  0.51570236  0.47390514    -0.09800
C537        C  0.02019399  0.52694915  0.00892413     0.29100
C538        C  0.01091431  0.00547557  0.03091386    -0.21800
C539        C  0.49245856  0.97340088  0.01777393    -0.09800
C540        C  0.48549838  0.96206164  0.48285608     0.29100
F541        F  0.46790219  0.93082991  0.46940835    -0.20300
H542        H  0.49189994  0.97305222  0.43534571     0.17400
H543        H  0.01651045  0.01467802  0.05749070     0.17400
F544        F  0.03723429  0.55840868  0.02228564    -0.20300
C545        C  0.52040911  0.89522656  0.39508988    -0.21800
C546        C  0.48714872  0.89984479  0.36142328    -0.09800
C547        C  0.98184615  0.93141108  0.34266761     0.29100
C548        C  0.00965890  0.95785006  0.35727235    -0.21800
C549        C  0.04270484  0.95363466  0.39135151    -0.09800
C550        C  0.04766855  0.92206358  0.41027539     0.29100
F551        F  0.07865334  0.91724201  0.44342366    -0.20300
H552        H  0.52497921  0.87084747  0.40984979     0.17400
H553        H  0.00450533  0.98226057  0.34244588     0.17400
F554        F  0.95026510  0.93640380  0.31000854    -0.20300
C555        C  0.00388740  0.66896141  0.40501488    -0.21800
C556        C  0.02108908  0.65305234  0.38609406    -0.09800
C557        C  0.00525481  0.65799563  0.34832432     0.29100
C558        C  0.47411294  0.68034446  0.33011597    -0.21800
C559        C  0.45874119  0.69867673  0.34943145    -0.09800
C560        C  0.47316249  0.69189354  0.38697380     0.29100
F561        F  0.45811403  0.70794398  0.40641516    -0.20300
H562        H  0.01410878  0.66349142  0.43352312     0.17400
H563        H  0.46338997  0.68467907  0.30119289     0.17400
F564        F  0.01944816  0.64054580  0.32893205    -0.20300
C565        C  0.09246911  0.61163916  0.27788688    -0.21800
C566        C  0.12545415  0.63285896  0.28875664    -0.09800
C567        C  0.15147171  0.63591276  0.32579132     0.29100
C568        C  0.14457054  0.61796991  0.35152164    -0.21800
C569        C  0.11107317  0.59729071  0.34092740    -0.09800
C570        C  0.08500946  0.59433385  0.30368046     0.29100
F571        F  0.05246343  0.57488497  0.29218246    -0.20300
H572        H  0.07191701  0.60915355  0.24926374     0.17400
H573        H  0.16514358  0.62114260  0.38001011     0.17400
F574        F  0.18377487  0.65568165  0.33703337    -0.20300
C575        C  0.09120497  0.63798212  0.02682885    -0.21800
C576        C  0.12136527  0.61357418  0.03776275    -0.09800
C577        C  0.14336905  0.60595722  0.07480078     0.29100
C578        C  0.13599471  0.62301046  0.10047735    -0.21800
C579        C  0.10591617  0.64740118  0.08977207    -0.09800
C580        C  0.08318563  0.65448205  0.05258941     0.29100
F581        F  0.05393784  0.67769229  0.04127434    -0.20300
H582        H  0.07345435  0.64377891  0.99829232     0.17400
H583        H  0.15358093  0.61658662  0.12897487     0.17400
F584        F  0.17244585  0.58257046  0.08624825    -0.20300
C585        C  0.47876198  0.55949504  0.08103157    -0.21800
C586        C  0.46090123  0.54170226  0.09861804    -0.09800
C587        C  0.97291977  0.54921725  0.13565893     0.29100
C588        C  0.00365457  0.57228424  0.15492464    -0.21800
C589        C  0.02348599  0.58767835  0.13796894    -0.09800
C590        C  0.51008580  0.58183639  0.10054490     0.29100
F591        F  0.52637131  0.59888124  0.08255254    -0.20300
H592        H  0.46942788  0.55503254  0.05228739     0.17400
H593        H  0.01177694  0.57850665  0.18310199     0.17400
F594        F  0.95496661  0.03416800  0.15320280    -0.20300
C595        C  0.02986241  0.81424409  0.15922578    -0.21800
C596        C  0.03531164  0.78866033  0.13800121    -0.09800
C597        C  0.01166036  0.78931502  0.09963830     0.29100
C598        C  0.48301134  0.81457843  0.08347474    -0.21800
C599        C  0.47730847  0.83932032  0.10507632    -0.09800
C600        C  0.00133187  0.83943320  0.14293856     0.29100
F601        F  0.99729960  0.86427173  0.16414544    -0.20300
H602        H  0.04708104  0.81426464  0.18869017     0.17400
H603        H  0.46569431  0.81514971  0.05409555     0.17400
F604        F  0.01550721  0.76522852  0.07764684    -0.20300
C605        C  0.25526472  0.78579117  0.24866475    -0.21800
C606        C  0.28819057  0.76585331  0.25774120    -0.09800
C607        C  0.28439700  0.72886603  0.25625394     0.29100
C608        C  0.24855526  0.71265776  0.24440956    -0.21800
C609        C  0.21546693  0.73246195  0.23466214    -0.09800
C610        C  0.21943323  0.76947091  0.23764820     0.29100
F611        F  0.18881793  0.79018537  0.23013399    -0.20300
H612        H  0.25717857  0.81408087  0.25002930     0.17400
H613        H  0.24686381  0.68435103  0.24336687     0.17400
F614        F  0.31544469  0.70791042  0.26674698    -0.20300
C615        C  0.01290242  0.73368612  0.28518978    -0.21800
C616        C  0.49467959  0.76574348  0.27227644    -0.09800
C617        C  0.48691625  0.77700712  0.23704813     0.29100
C618        C  0.49545661  0.75579763  0.21467283    -0.21800
C619        C  0.01295069  0.72345268  0.22726466    -0.09800
C620        C  0.02165597  0.71249333  0.26283062     0.29100
F621        F  0.03981433  0.68167121  0.27631854    -0.20300
H622        H  0.01880392  0.72436360  0.31190176     0.17400
H623        H  0.49040171  0.76555301  0.18834027     0.17400
F624        F  0.46983710  0.80828608  0.22379060    -0.20300
O625        O  0.06536243  0.66886735  0.61444935    -0.82300
C626        C  0.13112968  0.65126735  0.76039942     0.97100
O627        O  0.12480025  0.63442699  0.73226660    -0.71400
O628        O  0.08497945  0.61724245  0.66342746    -0.75000
Al629      Al  0.12597356  0.65240501  0.69103124     1.49000
C630        C  0.04953804  0.61734777  0.65550968     0.92400
O631        O  0.02235739  0.70825932  0.67548094    -0.81200
O632        O  0.07714950  0.75508432  0.69082208    -0.74700
Al633      Al  0.04851730  0.68849890  0.64877498     1.90100
O634        O  0.06807252  0.70094955  0.73125490    -0.73800
O635        O  0.14921738  0.73328943  0.71775766    -0.73700
O636        O  0.13825263  0.68391800  0.76216128    -0.79300
O637        O  0.17319959  0.68134878  0.71887238    -0.77500
O638        O  0.09426162  0.68601868  0.68724126    -1.13700
O639        O  0.12790972  0.66736588  0.64929914    -0.72800
C640        C  0.09907603  0.66348721  0.61852327     0.97900
C641        C  0.03409495  0.70822623  0.70981806     0.94300
Al642      Al  0.10747142  0.71639541  0.72289450     1.55600
O643        O  0.03408674  0.64482575  0.65837569    -0.77500
C644        C  0.17740375  0.71465411  0.72279848     0.98400
C645        C  0.06023171  0.75824824  0.65613978     0.93300
O646        O  0.05931774  0.73280459  0.63665289    -0.82800
O647        O  0.06664630  0.50946493  0.88853444    -0.82300
C648        C  0.12796637  0.59566246  0.50975942     0.97100
O649        O  0.13707695  0.56357244  0.51244962    -0.71400
O650        O  0.06795553  0.54192257  0.97972685    -0.75000
Al651      Al  0.10961784  0.52952336  0.97387283     1.49000
C652        C  0.03492055  0.53215410  0.95744001     0.92400
O653        O  0.03326077  0.59554169  0.90420917    -0.81200
O654        O  0.13128803  0.58079310  0.90143954    -0.74700
Al655      Al  0.05175660  0.55312512  0.89775542     1.90100
O656        O  0.08363412  0.62702767  0.91248678    -0.73800
O657        O  0.17502078  0.56878609  0.97128218    -0.73700
O658        O  0.12178177  0.61234844  0.98153009    -0.79300
O659        O  0.15271156  0.51584252  0.97060665    -0.77500
O660        O  0.09604392  0.55902454  0.93745998    -1.13700
O661        O  0.08291858  0.98883834  0.94305028    -0.72800
C662        C  0.06737464  0.98449578  0.90863509     0.97900
C663        C  0.04793030  0.62433131  0.90297778     0.94300
Al664      Al  0.12616444  0.59480590  0.94168918     1.55600
O665        O  0.02474341  0.53163422  0.92336205    -0.77500
C666        C  0.18015111  0.53561257  0.97512041     0.98400
C667        C  0.10344167  0.58201761  0.86981864     0.93300
O668        O  0.06968337  0.57395416  0.86447397    -0.82800
O669        O  0.43528026  0.75406344  0.85327917    -0.82300
C670        C  0.37882442  0.84366423  0.73439903     0.97100
O671        O  0.36988204  0.81154540  0.73156901    -0.71400
O672        O  0.43972169  0.79133240  0.76607090    -0.75000
Al673      Al  0.39696947  0.77747682  0.76972987     1.49000
C674        C  0.47229170  0.78093687  0.78863540     0.92400
O675        O  0.47501865  0.84091017  0.84627494    -0.81200
O676        O  0.37456805  0.82771038  0.84226258    -0.74700
Al677      Al  0.45340466  0.79816174  0.84787043     1.90100
O678        O  0.42414709  0.87346402  0.83239461    -0.73800
O679        O  0.33209672  0.81580694  0.77286787    -0.73700
O680        O  0.38615415  0.85975183  0.76319112    -0.79300
O681        O  0.35298708  0.76294338  0.77140359    -0.77500
O682        O  0.41038005  0.80595638  0.80713249    -1.13700
O683        O  0.42234349  0.73617605  0.79884143    -0.72800
C684        C  0.43525019  0.73006128  0.83265366     0.97900
C685        C  0.46036034  0.87018350  0.84527571     0.94300
Al686      Al  0.38107939  0.84175596  0.80278712     1.55600
O687        O  0.48126898  0.77844608  0.82243407    -0.77500
C688        C  0.32622871  0.78269979  0.76813167     0.98400
C689        C  0.40144990  0.82705409  0.87434476     0.93300
O690        O  0.43483226  0.81738442  0.88068026    -0.82800
O691        O  0.43324061  0.92191843  0.62670312    -0.82300
C692        C  0.37274204  0.89778063  0.98150278     0.97100
O693        O  0.37784651  0.88225293  0.50986580    -0.71400
O694        O  0.41628121  0.86791661  0.57818756    -0.75000
Al695      Al  0.37523418  0.90146386  0.54979403     1.49000
C696        C  0.45221295  0.86930004  0.58842783     0.92400
O697        O  0.47920869  0.96050438  0.56788840    -0.81200
O698        O  0.42314421  0.50488403  0.54688672    -0.74700
Al699      Al  0.45121744  0.94114031  0.59335633     1.90100
O700        O  0.43664239  0.94877837  0.51171193    -0.73800
O701        O  0.35203861  0.98107989  0.51861606    -0.73700
O702        O  0.36602406  0.93035324  0.97835736    -0.79300
O703        O  0.32819025  0.92949917  0.52092587    -0.77500
O704        O  0.40686386  0.93570545  0.55350873    -1.13700
O705        O  0.37140338  0.91646380  0.59057318    -0.72800
C706        C  0.39973712  0.91399646  0.62176990     0.97900
C707        C  0.46976539  0.95834427  0.53404145     0.94300
Al708      Al  0.39502788  0.96435313  0.51652777     1.55600
O709        O  0.46849137  0.89754012  0.58810050    -0.77500
C710        C  0.32431221  0.96267296  0.51591034     0.98400
C711        C  0.43698093  0.51027612  0.58106683     0.93300
O712        O  0.43702759  0.98584966  0.60146180    -0.82800
C713        C  0.36264615  0.86603357  0.89157212    -0.21800
C714        C  0.39335730  0.84221843  0.90277249    -0.09800
C715        C  0.41641886  0.83616334  0.94019052     0.29100
C716        C  0.40851083  0.85360102  0.96552891    -0.21800
C717        C  0.37832188  0.87797946  0.95401664    -0.09800
C718        C  0.35550721  0.88404009  0.91682775     0.29100
F719        F  0.32621206  0.90721716  0.90490016    -0.20300
H720        H  0.34458610  0.87177591  0.86291178     0.17400
H721        H  0.42686196  0.84893994  0.99441036     0.17400
F722        F  0.44644950  0.81375694  0.95221195    -0.20300
C723        C  0.35942661  0.85438539  0.66873845    -0.21800
C724        C  0.38337074  0.86216102  0.70546465    -0.09800
C725        C  0.41345464  0.88669426  0.71478270     0.29100
C726        C  0.41852885  0.90400454  0.68764233    -0.21800
C727        C  0.39362714  0.89729657  0.65080350    -0.09800
C728        C  0.36431366  0.87177094  0.64158378     0.29100
F729        F  0.34135566  0.86233001  0.60635061    -0.20300
H730        H  0.33695179  0.83484029  0.66107285     0.17400
H731        H  0.44205079  0.92244262  0.69540752     0.17400
F732        F  0.43913843  0.89269400  0.75021441    -0.20300
C733        C  0.28625959  0.51818845  0.50481627    -0.21800
C734        C  0.28746495  0.98116619  0.50607116    -0.09800
C735        C  0.25333356  0.96290146  0.49728710     0.29100
C736        C  0.21913668  0.98106219  0.98713426    -0.21800
C737        C  0.21775681  0.51812591  0.98568562    -0.09800
C738        C  0.25200520  0.53654794  0.99487707     0.29100
F739        F  0.25257815  0.57205859  0.99451030    -0.20300
H740        H  0.31211848  0.53326184  0.51167301     0.17400
H741        H  0.19345869  0.96572133  0.98033765     0.17400
F742        F  0.25267712  0.92741606  0.49809566    -0.20300
C743        C  0.49577214  0.98299190  0.96120606    -0.21800
C744        C  0.01305624  0.51573417  0.97391703    -0.09800
C745        C  0.02012783  0.52690915  0.50891424     0.29100
C746        C  0.01096255  0.00552976  0.53091775    -0.21800
C747        C  0.49249862  0.97344538  0.51778132    -0.09800
C748        C  0.48545556  0.96202602  0.98284530     0.29100
F749        F  0.46786309  0.93079369  0.96939322    -0.20300
H750        H  0.49185303  0.97302975  0.93533514     0.17400
H751        H  0.01656104  0.01474204  0.55749215     0.17400
F752        F  0.03715979  0.55837041  0.52227918    -0.20300
C753        C  0.52034508  0.89520161  0.89501068    -0.21800
C754        C  0.48708063  0.89981951  0.86134828    -0.09800
C755        C  0.98179863  0.93139575  0.84260522     0.29100
C756        C  0.00960559  0.95783952  0.85721585    -0.21800
C757        C  0.04264128  0.95363118  0.89130425    -0.09800
C758        C  0.04760281  0.92205997  0.91022818     0.29100
F759        F  0.07857737  0.91724328  0.94338422    -0.20300
H760        H  0.52492221  0.87081994  0.90976755     0.17400
H761        H  0.00445360  0.98224873  0.84238735     0.17400
F762        F  0.95022439  0.93638483  0.80994047    -0.20300
C763        C  0.00401751  0.66908233  0.90503920    -0.21800
C764        C  0.02105023  0.65303582  0.88603886    -0.09800
C765        C  0.00502803  0.65783325  0.84823184     0.29100
C766        C  0.47389251  0.68020604  0.83006066    -0.21800
C767        C  0.45867367  0.69866029  0.84943495    -0.09800
C768        C  0.47325801  0.69199460  0.88702141     0.29100
F769        F  0.45835405  0.70814889  0.90653147    -0.20300
H770        H  0.01437503  0.66372071  0.93358706     0.17400
H771        H  0.46304938  0.68444816  0.80110781     0.17400
F772        F  0.01903947  0.64023288  0.82877471    -0.20300
C773        C  0.09251281  0.61153308  0.77785770    -0.21800
C774        C  0.12542842  0.63284628  0.78871336    -0.09800
C775        C  0.15138613  0.63602228  0.82575224     0.29100
C776        C  0.14450101  0.61809790  0.85149985    -0.21800
C777        C  0.11107666  0.59731712  0.84091538    -0.09800
C778        C  0.08506601  0.59424623  0.80366676     0.29100
F779        F  0.05258700  0.57470090  0.79218237    -0.20300
H780        H  0.07200020  0.60896172  0.74923249     0.17400
H781        H  0.16502438  0.62136274  0.87999039     0.17400
F782        F  0.18361534  0.65589645  0.83698439    -0.20300
C783        C  0.09117227  0.63797355  0.52679691    -0.21800
C784        C  0.12130360  0.61353196  0.53774291    -0.09800
C785        C  0.14326973  0.60589436  0.57477982     0.29100
C786        C  0.13589983  0.62297082  0.60044630    -0.21800
C787        C  0.10585837  0.64740229  0.58973023    -0.09800
C788        C  0.08315440  0.65449582  0.55254723     0.29100
F789        F  0.05393782  0.67774098  0.54122354    -0.20300
H790        H  0.07344631  0.64378348  0.49825945     0.17400
H791        H  0.15345971  0.61653356  0.62894468     0.17400
F792        F  0.17230704  0.58246499  0.58623655    -0.20300
C793        C  0.47869708  0.55948756  0.58097647    -0.21800
C794        C  0.46085066  0.54169159  0.59857496    -0.09800
C795        C  0.97285488  0.54921743  0.63559832     0.29100
C796        C  0.00357730  0.57230178  0.65484971    -0.21800
C797        C  0.02340037  0.58769454  0.63788479    -0.09800
C798        C  0.51001249  0.58184302  0.60047727     0.29100
F799        F  0.52628391  0.59888944  0.58247313    -0.20300
H800        H  0.46935867  0.55501743  0.55223317     0.17400
H801        H  0.01169824  0.57853645  0.68302386     0.17400
F802        F  0.95495133  0.03424324  0.65320765    -0.20300
C803        C  0.02973319  0.81419748  0.65923979    -0.21800
C804        C  0.03532208  0.78871009  0.63801145    -0.09800
C805        C  0.01182132  0.78946550  0.59963125     0.29100
C806        C  0.48317282  0.81471328  0.58344549    -0.21800
C807        C  0.47733598  0.83936142  0.60504590    -0.09800
C808        C  0.00120183  0.83938325  0.64293517     0.29100
F809        F  0.99701504  0.86411430  0.66415049    -0.20300
H810        H  0.04682984  0.81413466  0.68871665     0.17400
H811        H  0.46596023  0.81535596  0.55405594     0.17400
F812        F  0.01579856  0.76546476  0.57764047    -0.20300
C813        C  0.25516186  0.78579327  0.74849246    -0.21800
C814        C  0.28811458  0.76585265  0.75770467    -0.09800
C815        C  0.28434907  0.72886436  0.75633883     0.29100
C816        C  0.24850924  0.71265034  0.74448161    -0.21800
C817        C  0.21539502  0.73245521  0.73459918    -0.09800
C818        C  0.21932927  0.76947092  0.73745654     0.29100
F819        F  0.18867740  0.79019079  0.72978227    -0.20300
H820        H  0.25705342  0.81408632  0.74975334     0.17400
H821        H  0.24683908  0.68434150  0.74354019     0.17400
F822        F  0.31542282  0.70791685  0.76696665    -0.20300
C823        C  0.01271164  0.73353560  0.78507805    -0.21800
C824        C  0.49455410  0.76562871  0.77220873    -0.09800
C825        C  0.48681615  0.77692062  0.73699561     0.29100
C826        C  0.49536505  0.75573243  0.71461369    -0.21800
C827        C  0.01282568  0.72336880  0.72717405    -0.09800
C828        C  0.02146780  0.71235850  0.76270773     0.29100
F829        F  0.03956925  0.68150460  0.77615297    -0.20300
H830        H  0.01856267  0.72417825  0.81176642     0.17400
H831        H  0.49033872  0.76551592  0.68829876     0.17400
F832        F  0.46975997  0.80821237  0.72375939    -0.20300
O833        O  0.56537503  0.16884794  0.11446033    -0.82300
C834        C  0.63114101  0.15127403  0.26041251     0.97100
O835        O  0.62481475  0.13442884  0.23228339    -0.71400
O836        O  0.58499828  0.11723200  0.16344856    -0.75000
Al837      Al  0.62598768  0.15239858  0.19104530     1.49000
C838        C  0.54955693  0.11733623  0.15552978     0.92400
O839        O  0.52236464  0.20825029  0.17548448    -0.81200
O840        O  0.57715319  0.25507869  0.19081522    -0.74700
Al841      Al  0.54852738  0.18848530  0.14878204     1.90100
O842        O  0.56808183  0.20095434  0.23126001    -0.73800
O843        O  0.64922403  0.23328767  0.21775505    -0.73700
O844        O  0.63826222  0.18392486  0.26216901    -0.79300
O845        O  0.67321070  0.18134671  0.21888117    -0.77500
O846        O  0.59427216  0.18601234  0.18724832    -1.13700
O847        O  0.62792286  0.16734938  0.14930952    -0.72800
C848        C  0.59908862  0.16346633  0.11853451     0.97900
C849        C  0.53410271  0.20822447  0.20982176     0.94300
Al850      Al  0.60747919  0.21639599  0.22289546     1.55600
O851        O  0.53410290  0.14481390  0.15839213    -0.77500
C852        C  0.67741224  0.21465262  0.22280088     0.98400
C853        C  0.56023117  0.25823529  0.15613218     0.93300
O854        O  0.55932171  0.23278896  0.13665032    -0.82800
O855        O  0.56665537  0.00946917  0.38854575    -0.82300
C856        C  0.62798386  0.09565126  0.00976757     0.97100
O857        O  0.63709446  0.06356147  0.01245118    -0.71400
O858        O  0.56795059  0.04192683  0.47973086    -0.75000
Al859      Al  0.60961682  0.02953068  0.47388229     1.49000
C860        C  0.53491704  0.03215613  0.45744251     0.92400
O861        O  0.53325651  0.09554333  0.40421052    -0.81200
O862        O  0.63129148  0.08080550  0.40145251    -0.74700
Al863      Al  0.55175903  0.05312834  0.39776176     1.90100
O864        O  0.58362842  0.12703453  0.41249378    -0.73800
O865        O  0.67502005  0.06879797  0.47129562    -0.73700
O866        O  0.62177219  0.11235575  0.48153673    -0.79300
O867        O  0.65271430  0.01585307  0.47062149    -0.77500
O868        O  0.59604350  0.05903117  0.43746850    -1.13700
O869        O  0.58291274  0.48882145  0.44304772    -0.72800
C870        C  0.56737199  0.48447616  0.40863312     0.97900
C871        C  0.54792386  0.12433476  0.40298099     0.94300
Al872      Al  0.62616147  0.09481531  0.44169931     1.55600
O873        O  0.52474291  0.03163537  0.42336517    -0.77500
C874        C  0.68015279  0.03562458  0.47513510     0.98400
C875        C  0.60344711  0.08202708  0.36983041     0.93300
O876        O  0.56968888  0.07395927  0.36448322    -0.82800
O877        O  0.93528673  0.25406245  0.35327369    -0.82300
C878        C  0.87883012  0.34366616  0.23439862     0.97100
O879        O  0.86988545  0.31154793  0.23156697    -0.71400
O880        O  0.93972510  0.29133324  0.26606434    -0.75000
Al881      Al  0.89697357  0.27747766  0.26972508     1.49000
C882        C  0.97229454  0.28093557  0.28862784     0.92400
O883        O  0.97502606  0.34090816  0.34626926    -0.81200
O884        O  0.87457764  0.32770529  0.34226287    -0.74700
Al885      Al  0.95341218  0.29815985  0.34786540     1.90100
O886        O  0.92415472  0.37346020  0.33239661    -0.73800
O887        O  0.83210315  0.31580791  0.27286644    -0.73700
O888        O  0.88616220  0.35975316  0.26319172    -0.79300
O889        O  0.85299265  0.26294453  0.27140078    -0.77500
O890        O  0.91038657  0.30595556  0.30712914    -1.13700
O891        O  0.92234656  0.23617574  0.29883450    -0.72800
C892        C  0.93525217  0.23006003  0.33264642     0.97900
C893        C  0.96036758  0.37018004  0.34527605     0.94300
Al894      Al  0.88108706  0.34175468  0.30278711     1.55600
O895        O  0.98127287  0.27844402  0.32242656    -0.77500
C896        C  0.82623471  0.28270091  0.26812963     0.98400
C897        C  0.90146128  0.32705081  0.37434448     0.93300
O898        O  0.93484348  0.31738235  0.38067835    -0.82800
O899        O  0.93325090  0.42189858  0.12669845    -0.82300
C900        C  0.87274294  0.39776487  0.48150373     0.97100
O901        O  0.87783188  0.38225120  0.00985878    -0.71400
O902        O  0.91627104  0.36790858  0.07817742    -0.75000
Al903      Al  0.87523088  0.40146388  0.04979082     1.49000
C904        C  0.95220119  0.36928392  0.08840876     0.92400
O905        O  0.97921737  0.46048991  0.06788575    -0.81200
O906        O  0.92315503  0.00487050  0.04689399    -0.74700
Al907      Al  0.95122564  0.44112230  0.09335108     1.90100
O908        O  0.93664763  0.44877200  0.01170939    -0.73800
O909        O  0.85204859  0.48108233  0.01861822    -0.73700
O910        O  0.86601793  0.43033633  0.47835633    -0.79300
O911        O  0.82819322  0.42950608  0.02092901    -0.77500
O912        O  0.90686767  0.43569888  0.05350543    -1.13700
O913        O  0.87141031  0.41646760  0.09057427    -0.72800
C914        C  0.89974560  0.41399019  0.12176879     0.97900
C915        C  0.96977142  0.45833629  0.03403821     0.94300
Al916      Al  0.89503570  0.46434990  0.01652852     1.55600
O917        O  0.96848460  0.39752019  0.08807857    -0.77500
C918        C  0.82432061  0.46267996  0.01591536     0.98400
C919        C  0.93699201  0.01025660  0.08107506     0.93300
O920        O  0.93704846  0.48583095  0.10146995    -0.82800
C921        C  0.86266756  0.36604029  0.39157326    -0.21800
C922        C  0.89337035  0.34221628  0.40277269    -0.09800
C923        C  0.91642126  0.33614864  0.44018993     0.29100
C924        C  0.90850876  0.35358112  0.46552846    -0.21800
C925        C  0.87832587  0.37796627  0.45401732    -0.09800
C926        C  0.85552341  0.38404025  0.41682898     0.29100
F927        F  0.82623412  0.40722359  0.40490158    -0.20300
H928        H  0.84461688  0.37179284  0.36291371     0.17400
H929        H  0.92685165  0.34891007  0.49440952     0.17400
F930        F  0.94644413  0.31373340  0.45221031    -0.20300
C931        C  0.85941001  0.35440893  0.16873800    -0.21800
C932        C  0.88337731  0.36216188  0.20546502    -0.09800
C933        C  0.91348179  0.38667191  0.21478340     0.29100
C934        C  0.91855642  0.40398055  0.18764254    -0.21800
C935        C  0.89363358  0.39729528  0.15080335    -0.09800
C936        C  0.86429591  0.37179449  0.14158290     0.29100
F937        F  0.84131087  0.36237753  0.10634744    -0.20300
H938        H  0.83691697  0.33488219  0.16107213     0.17400
H939        H  0.94209545  0.42239962  0.19540759     0.17400
F940        F  0.93918311  0.39264966  0.25021457    -0.20300
C941        C  0.78627140  0.01818948  0.00482456    -0.21800
C942        C  0.78747729  0.48117738  0.00608204    -0.09800
C943        C  0.75334463  0.46291515  0.99729787     0.29100
C944        C  0.71913114  0.48104312  0.48713308    -0.21800
C945        C  0.71775951  0.01813892  0.48569995    -0.09800
C946        C  0.75200546  0.03656116  0.49488079     0.29100
F947        F  0.75257596  0.07207170  0.49450514    -0.20300
H948        H  0.81213336  0.03326208  0.01169404     0.17400
H949        H  0.69345263  0.46570217  0.48033488     0.17400
F950        F  0.75268437  0.42742972  0.99810325    -0.20300
C951        C  0.99576124  0.48298564  0.46119628    -0.21800
C952        C  0.51305130  0.01573625  0.47391834    -0.09800
C953        C  0.52013606  0.02691892  0.00892085     0.29100
C954        C  0.51096927  0.50551738  0.03092036    -0.21800
C955        C  0.99250296  0.47344175  0.01777842    -0.09800
C956        C  0.98544512  0.46201799  0.48283535     0.29100
F957        F  0.96785127  0.43078650  0.46938155    -0.20300
H958        H  0.99184017  0.47302540  0.43532401     0.17400
H959        H  0.51656466  0.51472526  0.05749545     0.17400
F960        F  0.53716858  0.05838050  0.02228361    -0.20300
C961        C  0.02034122  0.39519880  0.39502406    -0.21800
C962        C  0.98708615  0.39981490  0.36135410    -0.09800
C963        C  0.48178643  0.43138451  0.34260855     0.29100
C964        C  0.50959380  0.45782750  0.35721948    -0.21800
C965        C  0.54263478  0.45361419  0.39130292    -0.09800
C966        C  0.54759989  0.42204022  0.41022289     0.29100
F967        F  0.57857799  0.41722040  0.44337578    -0.20300
H968        H  0.02491093  0.37081930  0.40978278     0.17400
H969        H  0.50443857  0.48223965  0.34239539     0.17400
F970        F  0.45020638  0.43637808  0.30994900    -0.20300
C971        C  0.50400281  0.16907983  0.40503859    -0.21800
C972        C  0.52104056  0.15303734  0.38604057    -0.09800
C973        C  0.50501933  0.15783450  0.34823350     0.29100
C974        C  0.97389670  0.18020611  0.33005713    -0.21800
C975        C  0.95866924  0.19865611  0.34942641    -0.09800
C976        C  0.97324152  0.19198471  0.38701022     0.29100
F977        F  0.95832837  0.20813532  0.40651441    -0.20300
H978        H  0.51435974  0.16371844  0.43358655     0.17400
H979        H  0.96306138  0.18445172  0.30110626     0.17400
F980        F  0.51903708  0.14023957  0.32877849    -0.20300
C981        C  0.59251592  0.11155130  0.27787116    -0.21800
C982        C  0.62543655  0.13285740  0.28872689    -0.09800
C983        C  0.65139909  0.13602533  0.32576527     0.29100
C984        C  0.64451303  0.11810060  0.35151241    -0.21800
C985        C  0.61108362  0.09732676  0.34092780    -0.09800
C986        C  0.58506878  0.09426365  0.30367950     0.29100
F987        F  0.55258514  0.07472507  0.29219470    -0.20300
H988        H  0.57200007  0.10898525  0.24924586     0.17400
H989        H  0.66504019  0.12135907  0.38000253     0.17400
F990        F  0.68363438  0.15589067  0.33699698    -0.20300
C991        C  0.59117992  0.13794702  0.02680776    -0.21800
C992        C  0.62131824  0.11351328  0.03775324    -0.09800
C993        C  0.64328721  0.10587712  0.07479040     0.29100
C994        C  0.63591643  0.12295201  0.10045770    -0.21800
C995        C  0.60587005  0.14737853  0.08974173    -0.09800
C996        C  0.58315970  0.15446539  0.05255821     0.29100
F997        F  0.55393361  0.17770024  0.04123370    -0.20300
H998        H  0.57344988  0.14375381  0.99826990     0.17400
H999        H  0.65347960  0.11651803  0.12895625     0.17400
F1000       F  0.67232800  0.08245146  0.08624645    -0.20300
C1001       C  0.97870058  0.05947288  0.08098578    -0.21800
C1002       C  0.96086216  0.04166945  0.09858708    -0.09800
C1003       C  0.47288358  0.04920039  0.13562222     0.29100
C1004       C  0.50360950  0.07228043  0.15487444    -0.21800
C1005       C  0.52342179  0.08768300  0.13790431    -0.09800
C1006       C  0.01001336  0.08183024  0.10048508     0.29100
F1007       F  0.02627534  0.09888614  0.08247787    -0.20300
H1008       H  0.96935817  0.05500715  0.05224047     0.17400
H1009       H  0.51174092  0.07850480  0.18305319     0.17400
F1010       F  0.45497720  0.53420119  0.15321833    -0.20300
C1011       C  0.52973486  0.31418802  0.15922560    -0.21800
C1012       C  0.53531193  0.28869056  0.13799923    -0.09800
C1013       C  0.51179330  0.28943092  0.09962103     0.29100
C1014       C  0.98315169  0.31468959  0.08342869    -0.21800
C1015       C  0.97731885  0.33934278  0.10502726    -0.09800
C1016       C  0.50120138  0.33937173  0.14292126     0.29100
F1017       F  0.49702581  0.36411222  0.16413455    -0.20300
H1018       H  0.54684379  0.31413574  0.18870118     0.17400
H1019       H  0.96593758  0.31532936  0.05403891     0.17400
F1020       F  0.51575439  0.26541694  0.07763239    -0.20300
C1021       C  0.75516812  0.28579351  0.24849214    -0.21800
C1022       C  0.78812093  0.26585352  0.25770295    -0.09800
C1023       C  0.78435602  0.22886516  0.25633588     0.29100
C1024       C  0.74851695  0.21265055  0.24448054    -0.21800
C1025       C  0.71540267  0.23245465  0.23459996    -0.09800
C1026       C  0.71933602  0.26947043  0.23745695     0.29100
F1027       F  0.68868375  0.29018957  0.22978310    -0.20300
H1028       H  0.75705922  0.31408665  0.24975338     0.17400
H1029       H  0.74684736  0.18434132  0.24353848     0.17400
F1030       F  0.81542960  0.20791810  0.26696003    -0.20300
C1031       C  0.51270406  0.23352231  0.28507626    -0.21800
C1032       C  0.99455320  0.26562282  0.27220032    -0.09800
C1033       C  0.98681638  0.27691359  0.23698740     0.29100
C1034       C  0.99535630  0.25572013  0.21460329    -0.21800
C1035       C  0.51282973  0.22336469  0.22717572    -0.09800
C1036       C  0.52146707  0.21235019  0.26270695     0.29100
F1037       F  0.53957084  0.18149706  0.27615110    -0.20300
H1038       H  0.51855159  0.22416146  0.31176246     0.17400
H1039       H  0.99033292  0.26550268  0.18828919     0.17400
F1040       F  0.96977103  0.30820986  0.22375414    -0.20300
O1041       O  0.56540434  0.16884027  0.61450779    -0.82300
C1042       C  0.63117697  0.15127526  0.76045049     0.97100
O1043       O  0.62486121  0.13443210  0.73232328    -0.71400
O1044       O  0.58504369  0.11724193  0.66348916    -0.75000
Al1045     Al  0.62603261  0.15240902  0.69108520     1.49000
C1046       C  0.54960833  0.11734012  0.65559243     0.92400
O1047       O  0.52240874  0.20827152  0.67554456    -0.81200
O1048       O  0.57719522  0.25508775  0.69084487    -0.74700
Al1049     Al  0.54856377  0.18848401  0.64883604     1.90100
O1050       O  0.56813896  0.20095293  0.73130230    -0.73800
O1051       O  0.64927463  0.23329801  0.71780064    -0.73700
O1052       O  0.63830536  0.18392612  0.76221244    -0.79300
O1053       O  0.67325802  0.18135705  0.71892226    -0.77500
O1054       O  0.59431782  0.18602099  0.68729216    -1.13700
O1055       O  0.62795677  0.16736836  0.64934635    -0.72800
C1056       C  0.59911942  0.16347987  0.61857339     0.97900
C1057       C  0.53416876  0.20826239  0.70988553     0.94300
Al1058     Al  0.60752717  0.21640310  0.72293684     1.55600
O1059       O  0.53415984  0.14481342  0.65847526    -0.77500
C1060       C  0.67746369  0.21466240  0.72284959     0.98400
C1061       C  0.56025573  0.25823244  0.65615857     0.93300
O1062       O  0.55934353  0.23278031  0.63668263    -0.82800
O1063       O  0.56654691  0.00947347  0.88849516    -0.82300
C1064       C  0.62800102  0.09571656  0.50977197     0.97100
O1065       O  0.63712426  0.06363079  0.51246292    -0.71400
O1066       O  0.56792167  0.04186880  0.97973393    -0.75000
Al1067     Al  0.60957547  0.02947510  0.97385853     1.49000
C1068       C  0.53487680  0.03212835  0.95744419     0.92400
O1069       O  0.53326843  0.09556223  0.90427986    -0.81200
O1070       O  0.63126140  0.08074463  0.90144149    -0.74700
Al1071     Al  0.55171088  0.05313653  0.89776590     1.90100
O1072       O  0.58365081  0.12700644  0.91251179    -0.73800
O1073       O  0.67499531  0.06873116  0.97128683    -0.73700
O1074       O  0.62178092  0.11230027  0.98154446    -0.79300
O1075       O  0.65266931  0.01579085  0.97058300    -0.77500
O1076       O  0.59601169  0.05899390  0.93746289    -1.13700
O1077       O  0.58299494  0.48886514  0.94310103    -0.72800
C1078       C  0.56747320  0.48450033  0.90869062     0.97900
C1079       C  0.54795455  0.12433981  0.90303900     0.94300
Al1080     Al  0.62615419  0.09476235  0.94170055     1.55600
O1081       O  0.52469190  0.03163800  0.92336468    -0.77500
C1082       C  0.68011672  0.03555772  0.97511006     0.98400
C1083       C  0.60341115  0.08200176  0.86982335     0.93300
O1084       O  0.56964456  0.07397350  0.86448446    -0.82800
O1085       O  0.93535248  0.25407323  0.85330666    -0.82300
C1086       C  0.87885669  0.34368820  0.73443713     0.97100
O1087       O  0.86992725  0.31156815  0.73161058    -0.71400
O1088       O  0.93978933  0.29138119  0.76610469    -0.75000
Al1089     Al  0.89703828  0.27750750  0.76976567     1.49000
C1090       C  0.97237266  0.28101812  0.78868033     0.92400
O1091       O  0.97507938  0.34093758  0.84634072    -0.81200
O1092       O  0.87462935  0.32771821  0.84230244    -0.74700
Al1093     Al  0.95346841  0.29818467  0.84791432     1.90100
O1094       O  0.92420117  0.37348693  0.83244079    -0.73800
O1095       O  0.83216027  0.31581400  0.77291256    -0.73700
O1096       O  0.88620691  0.35977413  0.76323495    -0.79300
O1097       O  0.85306066  0.26295536  0.77144475    -0.77500
O1098       O  0.91044541  0.30598070  0.80717415    -1.13700
O1099       O  0.92242557  0.23621508  0.79886102    -0.72800
C1100       C  0.93532027  0.23008410  0.83266690     0.97900
C1101       C  0.96041647  0.37020838  0.84533648     0.94300
Al1102     Al  0.88113848  0.34177242  0.80283114     1.55600
O1103       O  0.98133911  0.27850641  0.82247513    -0.77500
C1104       C  0.82629671  0.28270619  0.76817175     0.98400
C1105       C  0.90151016  0.32706861  0.87438420     0.93300
O1106       O  0.93489018  0.31738886  0.88072452    -0.82800
O1107       O  0.93319086  0.42189361  0.62669510    -0.82300
C1108       C  0.87277444  0.39784615  0.98149800     0.97100
O1109       O  0.87781709  0.38217750  0.50987407    -0.71400
O1110       O  0.91624584  0.36786285  0.57820758    -0.75000
Al1111     Al  0.87519798  0.40140846  0.54979410     1.49000
C1112       C  0.95217989  0.36925008  0.58845576     0.92400
O1113       O  0.97917632  0.46043819  0.56788133    -0.81200
O1114       O  0.92317956  0.00494289  0.54691435    -0.74700
Al1115     Al  0.95117955  0.44109215  0.59335217     1.90100
O1116       O  0.93661485  0.44868563  0.51171089    -0.73800
O1117       O  0.85200680  0.48101944  0.51859517    -0.73700
O1118       O  0.86605633  0.43041881  0.97835693    -0.79300
O1119       O  0.82815540  0.42944127  0.52091017    -0.77500
O1120       O  0.90682887  0.43564679  0.55350330    -1.13700
O1121       O  0.87135605  0.41643374  0.59055785    -0.72800
C1122       C  0.89968369  0.41398382  0.62175911     0.97900
C1123       C  0.96973296  0.45826958  0.53403456     0.94300
Al1124     Al  0.89499777  0.46427956  0.51651467     1.55600
O1125       O  0.96845268  0.39748923  0.58811727    -0.77500
C1126       C  0.82427862  0.46261498  0.51589068     0.98400
C1127       C  0.93701983  0.01031909  0.58109718     0.93300
O1128       O  0.93699535  0.48581006  0.60144239    -0.82800
C1129       C  0.86272203  0.36608995  0.89158667    -0.21800
C1130       C  0.89342047  0.34225853  0.90280161    -0.09800
C1131       C  0.91647416  0.33621372  0.94022195     0.29100
C1132       C  0.90855853  0.35366498  0.96554770    -0.21800
C1133       C  0.87837377  0.37804959  0.95402120    -0.09800
C1134       C  0.85557850  0.38411226  0.91683027     0.29100
F1135       F  0.82629540  0.40730293  0.90488875    -0.20300
H1136       H  0.84467377  0.37183039  0.86292340     0.17400
H1137       H  0.92689961  0.34900677  0.99443277     0.17400
F1138       F  0.94650282  0.31380382  0.95225704    -0.20300
C1139       C  0.85931985  0.35448829  0.66876686    -0.21800
C1140       C  0.88336753  0.36218639  0.70549071    -0.09800
C1141       C  0.91351088  0.38664620  0.71479153     0.29100
C1142       C  0.91855536  0.40395733  0.68763719    -0.21800
C1143       C  0.89356622  0.39732062  0.65080265    -0.09800
C1144       C  0.86417590  0.37187595  0.64159709     0.29100
F1145       F  0.84111148  0.36250891  0.60636124    -0.20300
H1146       H  0.83679009  0.33500129  0.66111586     0.17400
H1147       H  0.94213120  0.42233164  0.69538818     0.17400
F1148       F  0.93927969  0.39256443  0.75021494    -0.20300
C1149       C  0.78630640  0.01825097  0.50485044    -0.21800
C1150       C  0.78743063  0.48110869  0.50605041    -0.09800
C1151       C  0.75330101  0.46284287  0.49727287     0.29100
C1152       C  0.71917697  0.48111963  0.98715239    -0.21800
C1153       C  0.71772259  0.01807263  0.98567118    -0.09800
C1154       C  0.75196859  0.03649735  0.99485379     0.29100
F1155       F  0.75253713  0.07200817  0.99447739    -0.20300
H1156       H  0.81216836  0.03332268  0.51171620     0.17400
H1157       H  0.69349569  0.46578041  0.98034600     0.17400
F1158       F  0.75264599  0.42735755  0.49807865    -0.20300
C1159       C  0.99582501  0.48301728  0.96121334    -0.21800
C1160       C  0.51300281  0.01570877  0.97391370    -0.09800
C1161       C  0.52018953  0.02695156  0.50892546     0.29100
C1162       C  0.51090023  0.50548488  0.53090164    -0.21800
C1163       C  0.99245067  0.47339014  0.51776586    -0.09800
C1164       C  0.98550392  0.46205883  0.98285353     0.29100
F1165       F  0.96790840  0.43082707  0.96940514    -0.20300
H1166       H  0.99190556  0.47305071  0.93534371     0.17400
H1167       H  0.51649595  0.51469342  0.55747648     0.17400
F1168       F  0.53722898  0.05841147  0.52228628    -0.20300
C1169       C  0.02038709  0.39522989  0.89508852    -0.21800
C1170       C  0.98713528  0.39984357  0.86141456    -0.09800
C1171       C  0.48188452  0.43140850  0.84267080     0.29100
C1172       C  0.50970155  0.45784435  0.85727562    -0.21800
C1173       C  0.54273119  0.45363824  0.89136910    -0.09800
C1174       C  0.54767539  0.42207742  0.91030579     0.29100
F1175       F  0.57864524  0.41726313  0.94346589    -0.20300
H1176       H  0.02494788  0.37085618  0.90985559     0.17400
H1177       H  0.50456310  0.48224587  0.84243688     0.17400
F1178       F  0.45032062  0.43639162  0.80999671    -0.20300
C1179       C  0.50389052  0.16896730  0.90502842    -0.21800
C1180       C  0.52109869  0.15306016  0.88611249    -0.09800
C1181       C  0.50527190  0.15800478  0.84834370     0.29100
C1182       C  0.97412948  0.18036406  0.83012486    -0.21800
C1183       C  0.95873106  0.19867852  0.84942760    -0.09800
C1184       C  0.97313161  0.19188513  0.88696536     0.29100
F1185       F  0.95805569  0.20791759  0.90639277    -0.20300
H1186       H  0.51410613  0.16349601  0.93353550     0.17400
H1187       H  0.96342115  0.18470593  0.80120441     0.17400
F1188       F  0.51947071  0.14055540  0.82895581    -0.20300
C1189       C  0.59245382  0.11164297  0.77788056    -0.21800
C1190       C  0.62544273  0.13285733  0.78874919    -0.09800
C1191       C  0.65146143  0.13591111  0.82578316     0.29100
C1192       C  0.64455918  0.11797287  0.85151453    -0.21800
C1193       C  0.61105912  0.09729868  0.84092230    -0.09800
C1194       C  0.58499236  0.09434285  0.80367582     0.29100
F1195       F  0.55244199  0.07490062  0.79218003    -0.20300
H1196       H  0.57190040  0.10915870  0.74925798     0.17400
H1197       H  0.66513386  0.12114529  0.88000217     0.17400
F1198       F  0.68376689  0.15567625  0.83702379    -0.20300
C1199       C  0.59118272  0.13798083  0.52682849    -0.21800
C1200       C  0.62135031  0.11358047  0.53776569    -0.09800
C1201       C  0.64336086  0.10597250  0.57480462     0.29100
C1202       C  0.63598905  0.12303063  0.60047971    -0.21800
C1203       C  0.60590475  0.14741545  0.58977169    -0.09800
C1204       C  0.58316472  0.15448438  0.55258790     0.29100
F1205       F  0.55390847  0.17768573  0.54127044    -0.20300
H1206       H  0.57342638  0.14376900  0.49829102     0.17400
H1207       H  0.65358125  0.11661429  0.62897813     0.17400
F1208       F  0.67244157  0.08258976  0.58625417    -0.20300
C1209       C  0.97877059  0.05950718  0.58103613    -0.21800
C1210       C  0.96089799  0.04172450  0.59861745    -0.09800
C1211       C  0.47288720  0.04924552  0.63563914     0.29100
C1212       C  0.50362282  0.07231104  0.65490719    -0.21800
C1213       C  0.52346966  0.08769142  0.63795956    -0.09800
C1214       C  0.01009976  0.08184229  0.60055316     0.29100
F1215       F  0.02640068  0.09887305  0.58256666    -0.20300
H1216       H  0.96944165  0.05504088  0.55229389     0.17400
H1217       H  0.51173413  0.07854275  0.68307990     0.17400
F1218       F  0.45493713  0.53421017  0.65318307    -0.20300
C1219       C  0.52986668  0.31425782  0.65924398    -0.21800
C1220       C  0.53531897  0.28867792  0.63801745    -0.09800
C1221       C  0.51167502  0.28934057  0.59965387     0.29100
C1222       C  0.98300532  0.31456931  0.58348201    -0.21800
C1223       C  0.97731624  0.33931985  0.60508455    -0.09800
C1224       C  0.50133782  0.33944914  0.64295747     0.29100
F1225       F  0.49730443  0.36428562  0.66416559    -0.20300
H1226       H  0.54708111  0.31427349  0.68870842     0.17400
H1227       H  0.96567312  0.31513072  0.55410400     0.17400
F1228       F  0.51552974  0.26526189  0.57766018    -0.20300
C1229       C  0.75524641  0.28579403  0.74861907    -0.21800
C1230       C  0.78818090  0.26585504  0.75773970    -0.09800
C1231       C  0.78439663  0.22886748  0.75629373     0.29100
C1232       C  0.74855529  0.21265757  0.74444571    -0.21800
C1233       C  0.71545865  0.23246230  0.73465488    -0.09800
C1234       C  0.71941489  0.26947351  0.73759846     0.29100
F1235       F  0.68878862  0.29019021  0.73003482    -0.20300
H1236       H  0.75715304  0.31408508  0.74994918     0.17400
H1237       H  0.74687063  0.18434998  0.74343691     0.17400
F1238       F  0.81545329  0.20791463  0.76683306    -0.20300
C1239       C  0.51291420  0.23369845  0.78519903    -0.21800
C1240       C  0.99467519  0.26575554  0.77227349    -0.09800
C1241       C  0.98691193  0.27701994  0.73704521     0.29100
C1242       C  0.99546318  0.25581533  0.71467329    -0.21800
C1243       C  0.51295156  0.22345877  0.72727075    -0.09800
C1244       C  0.52166020  0.21250157  0.76283802     0.29100
F1245       F  0.53981474  0.18167775  0.77632514    -0.20300
H1246       H  0.51881844  0.22437780  0.81191308     0.17400
H1247       H  0.99040825  0.26557119  0.68834137     0.17400
F1248       F  0.96982347  0.30829491  0.72378471    -0.20300
O1249       O  0.56540384  0.66883161  0.11450599    -0.82300
C1250       C  0.63117504  0.65127068  0.26045039     0.97100
O1251       O  0.62486029  0.63442735  0.23232356    -0.71400
O1252       O  0.58504573  0.61723377  0.16349038    -0.75000
Al1253     Al  0.62603143  0.65240318  0.19108541     1.49000
C1254       C  0.54960992  0.61732995  0.15559171     0.92400
O1255       O  0.52240233  0.70825884  0.17553988    -0.81200
O1256       O  0.57718532  0.75507897  0.19083936    -0.74700
Al1257     Al  0.54856009  0.68847358  0.14883269     1.90100
O1258       O  0.56813229  0.70094374  0.23129846    -0.73800
O1259       O  0.64926830  0.73329405  0.21779854    -0.73700
O1260       O  0.63830033  0.68392207  0.26221117    -0.79300
O1261       O  0.67325421  0.68135371  0.21892237    -0.77500
O1262       O  0.59431392  0.68601344  0.18728989    -1.13700
O1263       O  0.62795623  0.66736115  0.14934651    -0.72800
C1264       C  0.59911974  0.66347296  0.11857292     0.97900
C1265       C  0.53416145  0.70825012  0.20988077     0.94300
Al1266     Al  0.60752021  0.71639661  0.22293348     1.55600
O1267       O  0.53415844  0.64480226  0.15847197    -0.77500
C1268       C  0.67745890  0.71465904  0.22285027     0.98400
C1269       C  0.56024601  0.75822234  0.15615292     0.93300
O1270       O  0.55933672  0.73277034  0.13667824    -0.82800
O1271       O  0.56655233  0.50945498  0.38849794    -0.82300
C1272       C  0.62801236  0.59572046  0.00977274     0.97100
O1273       O  0.63713508  0.56363443  0.01246411    -0.71400
O1274       O  0.56790603  0.54186650  0.47972246    -0.75000
Al1275     Al  0.60956470  0.52946899  0.47385663     1.49000
C1276       C  0.53486347  0.53212089  0.45743169     0.92400
O1277       O  0.53325758  0.59554599  0.40425629    -0.81200
O1278       O  0.63126056  0.58072882  0.40143862    -0.74700
Al1279     Al  0.55170764  0.55311918  0.39775613     1.90100
O1280       O  0.58364262  0.62699218  0.41249816    -0.73800
O1281       O  0.67498735  0.56872031  0.47128521    -0.73700
O1282       O  0.62176801  0.61229438  0.48153267    -0.79300
O1283       O  0.65266253  0.51578109  0.47058978    -0.77500
O1284       O  0.59600442  0.55898263  0.43745666    -1.13700
O1285       O  0.58298597  0.98886411  0.44309750    -0.72800
C1286       C  0.56746394  0.98450084  0.40868707     0.97900
C1287       C  0.54794475  0.62432411  0.40301846     0.94300
Al1288     Al  0.62614661  0.59475057  0.44169315     1.55600
O1289       O  0.52468329  0.53162477  0.42335304    -0.77500
C1290       C  0.68010947  0.53554707  0.47511363     0.98400
C1291       C  0.60341281  0.58198417  0.36981917     0.93300
O1292       O  0.56964609  0.57395197  0.36447683    -0.82800
O1293       O  0.93535293  0.75406767  0.35330687    -0.82300
C1294       C  0.87885558  0.84367952  0.23443390     0.97100
O1295       O  0.86992538  0.81155985  0.23160876    -0.71400
O1296       O  0.93978716  0.79137316  0.26610306    -0.75000
Al1297     Al  0.89703558  0.77750078  0.26976454     1.49000
C1298       C  0.97237009  0.78100875  0.28867825     0.92400
O1299       O  0.97507806  0.84093190  0.34633606    -0.81200
O1300       O  0.87463181  0.82771883  0.34230575    -0.74700
Al1301     Al  0.95346787  0.79817942  0.34791251     1.90100
O1302       O  0.92420013  0.87348207  0.33243512    -0.73800
O1303       O  0.83215846  0.81580808  0.27291532    -0.73700
O1304       O  0.88620196  0.85976675  0.26323015    -0.79300
O1305       O  0.85305713  0.76294964  0.27144330    -0.77500
O1306       O  0.91044340  0.80597485  0.30717292    -1.13700
O1307       O  0.92242198  0.73620908  0.29886010    -0.72800
C1308       C  0.93531936  0.73007837  0.33266625     0.97900
C1309       C  0.96041539  0.87020303  0.34533149     0.94300
Al1310     Al  0.88113696  0.84176759  0.30282971     1.55600
O1311       O  0.98133715  0.77849854  0.32247315    -0.77500
C1312       C  0.82629406  0.78270049  0.26817283     0.98400
C1313       C  0.90151550  0.82707220  0.37438658     0.93300
O1314       O  0.93489313  0.81738722  0.38072439    -0.82800
O1315       O  0.93319895  0.92187899  0.12669296    -0.82300
C1316       C  0.87278284  0.89785426  0.48150414     0.97100
O1317       O  0.87780952  0.88218286  0.00986657    -0.71400
O1318       O  0.91624087  0.86785818  0.07819564    -0.75000
Al1319     Al  0.87519696  0.90140920  0.04979033     1.49000
C1320       C  0.95217459  0.86924162  0.08844180     0.92400
O1321       O  0.97918225  0.96043356  0.06788400    -0.81200
O1322       O  0.92318696  0.50492924  0.04691852    -0.74700
Al1323     Al  0.95118468  0.94108232  0.09335113     1.90100
O1324       O  0.93662019  0.94868700  0.01171285    -0.73800
O1325       O  0.85201413  0.98102462  0.01859804    -0.73700
O1326       O  0.86605615  0.93042525  0.47836135    -0.79300
O1327       O  0.82815840  0.92944862  0.02091279    -0.77500
O1328       O  0.90683181  0.93564473  0.05350261    -1.13700
O1329       O  0.87136172  0.91642789  0.09056007    -0.72800
C1330       C  0.89969249  0.91397123  0.12175901     0.97900
C1331       C  0.96973854  0.95826945  0.03403721     0.94300
Al1332     Al  0.89500409  0.96428215  0.01651779     1.55600
O1333       O  0.96845125  0.89747942  0.08810566    -0.77500
C1334       C  0.82428435  0.96262236  0.01589259     0.98400
C1335       C  0.93703135  0.51030007  0.08110283     0.93300
O1336       O  0.93700400  0.98579728  0.10144965    -0.82800
C1337       C  0.86273958  0.86610774  0.39159182    -0.21800
C1338       C  0.89343238  0.84227021  0.40280560    -0.09800
C1339       C  0.91648465  0.83622362  0.44022606     0.29100
C1340       C  0.90856916  0.85367459  0.46555243    -0.21800
C1341       C  0.87838592  0.87806083  0.45402693    -0.09800
C1342       C  0.85559558  0.88412893  0.41683607     0.29100
F1343       F  0.82631490  0.90732219  0.40489501    -0.20300
H1344       H  0.84469419  0.87185133  0.36292878     0.17400
H1345       H  0.92690804  0.84901338  0.49443729     0.17400
F1346       F  0.94651042  0.81381049  0.45226074    -0.20300
C1347       C  0.85936175  0.85443884  0.16876481    -0.21800
C1348       C  0.88337086  0.86217524  0.20548749    -0.09800
C1349       C  0.91348639  0.88666695  0.21478847     0.29100
C1350       C  0.91853554  0.90397415  0.18763474    -0.21800
C1351       C  0.89357937  0.89730113  0.15080091    -0.09800
C1352       C  0.86422390  0.87182147  0.14159594     0.29100
F1353       F  0.84120233  0.86241739  0.10636326    -0.20300
H1354       H  0.83685780  0.83492532  0.16111390     0.17400
H1355       H  0.94208723  0.92237620  0.19538566     0.17400
F1356       F  0.93922511  0.89262266  0.25021323    -0.20300
C1357       C  0.78631589  0.51824904  0.00485961    -0.21800
C1358       C  0.78743714  0.98111815  0.00604991    -0.09800
C1359       C  0.75330460  0.96285311  0.99726112     0.29100
C1360       C  0.71917206  0.98111943  0.48715617    -0.21800
C1361       C  0.71771566  0.51806157  0.48567611    -0.09800
C1362       C  0.75195919  0.53648666  0.49484947     0.29100
F1363       F  0.75252538  0.57199731  0.49446540    -0.20300
H1364       H  0.81217950  0.53331936  0.01173058     0.17400
H1365       H  0.69349205  0.96577915  0.48035473     0.17400
F1366       F  0.75264613  0.92736758  0.99805683    -0.20300
C1367       C  0.99581991  0.98301538  0.46121696    -0.21800
C1368       C  0.51298827  0.51570246  0.47390118    -0.09800
C1369       C  0.52020305  0.52694400  0.00893264     0.29100
C1370       C  0.51091272  0.00548600  0.03091222    -0.21800
C1371       C  0.99245650  0.97339283  0.01777050    -0.09800
C1372       C  0.98550290  0.96205892  0.48286129     0.29100
F1373       F  0.96791091  0.93082463  0.46941835    -0.20300
H1374       H  0.99190154  0.97304537  0.43534880     0.17400
H1375       H  0.51650678  0.01469266  0.05748732     0.17400
F1376       F  0.53724845  0.55840044  0.02230008    -0.20300
C1377       C  0.02039906  0.89521779  0.39507265    -0.21800
C1378       C  0.98713387  0.89983839  0.36141040    -0.09800
C1379       C  0.48186621  0.93141479  0.34267734     0.29100
C1380       C  0.50967994  0.95785285  0.35728222    -0.21800
C1381       C  0.54272121  0.95364017  0.39136526    -0.09800
C1382       C  0.54767903  0.92207221  0.41029327     0.29100
F1383       F  0.57865817  0.91725376  0.44344615    -0.20300
H1384       H  0.02497333  0.87083681  0.40982989     0.17400
H1385       H  0.50453021  0.98226125  0.34245239     0.17400
F1386       F  0.45028903  0.93640572  0.31001508    -0.20300
C1387       C  0.50390253  0.66896723  0.40502081    -0.21800
C1388       C  0.52108999  0.65304589  0.38609376    -0.09800
C1389       C  0.50524536  0.65798178  0.34832206     0.29100
C1390       C  0.97411699  0.68035183  0.33011452    -0.21800
C1391       C  0.95873101  0.69867245  0.34942464    -0.09800
C1392       C  0.97314308  0.69188286  0.38696444     0.29100
F1393       F  0.95808021  0.70792158  0.40639963    -0.20300
H1394       H  0.51413196  0.66350338  0.43353170     0.17400
H1395       H  0.96340064  0.68469127  0.30119279     0.17400
F1396       F  0.51942414  0.64051956  0.32892472    -0.20300
C1397       C  0.59246195  0.61162536  0.27787944    -0.21800
C1398       C  0.62544274  0.63285128  0.28874954    -0.09800
C1399       C  0.65145485  0.63591382  0.32578464     0.29100
C1400       C  0.64455395  0.61797217  0.35151528    -0.21800
C1401       C  0.61106206  0.59728534  0.34092071    -0.09800
C1402       C  0.58500219  0.59432111  0.30367342     0.29100
F1403       F  0.55246061  0.57486555  0.29217554    -0.20300
H1404       H  0.57191331  0.60913418  0.24925596     0.17400
H1405       H  0.66512276  0.62115131  0.38000389     0.17400
F1406       F  0.68375285  0.65569021  0.33702707    -0.20300
C1407       C  0.59120450  0.63799648  0.02683069    -0.21800
C1408       C  0.62136208  0.61358510  0.03776681    -0.09800
C1409       C  0.64335950  0.60596381  0.07480436     0.29100
C1410       C  0.63598256  0.62301647  0.10047903    -0.21800
C1411       C  0.60590752  0.64741102  0.08977176    -0.09800
C1412       C  0.58318266  0.65449628  0.05258958     0.29100
F1413       F  0.55393869  0.67771083  0.04127366    -0.20300
H1414       H  0.57345898  0.64379610  0.99829496     0.17400
H1415       H  0.65356364  0.61658942  0.12897592     0.17400
F1416       F  0.67243265  0.58257301  0.08625355    -0.20300
C1417       C  0.97877056  0.55949731  0.08104007    -0.21800
C1418       C  0.96090977  0.54170426  0.09862623    -0.09800
C1419       C  0.47290996  0.54921684  0.13565012     0.29100
C1420       C  0.50364352  0.57228507  0.15491520    -0.21800
C1421       C  0.52347439  0.58767967  0.13795925    -0.09800
C1422       C  0.01009663  0.58183598  0.10055432     0.29100
F1423       F  0.02638387  0.59887901  0.08256251    -0.20300
H1424       H  0.96943498  0.55503677  0.05229556     0.17400
H1425       H  0.51176526  0.57850812  0.18309221     0.17400
F1426       F  0.45497066  0.03417752  0.15320547    -0.20300
C1427       C  0.52985025  0.81424421  0.15923535    -0.21800
C1428       C  0.53530757  0.78866634  0.13801011    -0.09800
C1429       C  0.51166795  0.78932997  0.09964580     0.29100
C1430       C  0.98300029  0.81456076  0.08346841    -0.21800
C1431       C  0.97730647  0.83930902  0.10507007    -0.09800
C1432       C  0.50132249  0.83943594  0.14294679     0.29100
F1433       F  0.49728169  0.86426828  0.16415440    -0.20300
H1434       H  0.54705952  0.81425774  0.18870034     0.17400
H1435       H  0.96567457  0.81512550  0.05409058     0.17400
F1436       F  0.51552293  0.76524951  0.07765378    -0.20300
C1437       C  0.75524587  0.78578905  0.24863201    -0.21800
C1438       C  0.78817797  0.76584974  0.25774198    -0.09800
C1439       C  0.78439108  0.72886234  0.25628779     0.29100
C1440       C  0.74854929  0.71265352  0.24444042    -0.21800
C1441       C  0.71545471  0.73245872  0.23465869    -0.09800
C1442       C  0.71941407  0.76946923  0.23761289     0.29100
F1443       F  0.68879093  0.79018572  0.23006209    -0.20300
H1444       H  0.75715470  0.81407980  0.24996991     0.17400
H1445       H  0.74686264  0.68434601  0.24342414     0.17400
F1446       F  0.81544553  0.70790837  0.26681789    -0.20300
C1447       C  0.51290143  0.73368173  0.28519207    -0.21800
C1448       C  0.99467122  0.76574358  0.27227106    -0.09800
C1449       C  0.98690925  0.77700831  0.23704337     0.29100
C1450       C  0.99545869  0.75580289  0.21467078    -0.21800
C1451       C  0.51294229  0.72344501  0.22726474    -0.09800
C1452       C  0.52164702  0.71248513  0.26283031     0.29100
F1453       F  0.53979801  0.68165939  0.27631519    -0.20300
H1454       H  0.51880146  0.72435885  0.31190438     0.17400
H1455       H  0.99040434  0.76555897  0.18833902     0.17400
F1456       F  0.96982406  0.80828474  0.22378422    -0.20300
O1457       O  0.56537313  0.66886408  0.61445430    -0.82300
C1458       C  0.63114332  0.65127113  0.76040788     0.97100
O1459       O  0.62481193  0.63442967  0.73227509    -0.71400
O1460       O  0.58498957  0.61724120  0.66343641    -0.75000
Al1461     Al  0.62598410  0.65240405  0.69103772     1.49000
C1462       C  0.54954791  0.61734795  0.65551750     0.92400
O1463       O  0.52236853  0.70826151  0.67548756    -0.81200
O1464       O  0.57715999  0.75508577  0.69082496    -0.74700
Al1465     Al  0.54852817  0.68849879  0.64878060     1.90100
O1466       O  0.56808475  0.70095448  0.73126158    -0.73800
O1467       O  0.64922782  0.73328982  0.71775977    -0.73700
O1468       O  0.63826526  0.68392190  0.76216759    -0.79300
O1469       O  0.67320989  0.68134861  0.71887607    -0.77500
O1470       O  0.59427257  0.68601906  0.68724653    -1.13700
O1471       O  0.62792024  0.66735954  0.64930340    -0.72800
C1472       C  0.59908627  0.66348033  0.61852771     0.97900
C1473       C  0.53410689  0.70823065  0.70982511     0.94300
Al1474     Al  0.60748296  0.71639777  0.72289876     1.55600
O1475       O  0.53409739  0.64482665  0.65838296    -0.77500
C1476       C  0.67741405  0.71465403  0.72280127     0.98400
C1477       C  0.56024028  0.75824811  0.65614250     0.93300
O1478       O  0.55932829  0.73280413  0.63665670    -0.82800
O1479       O  0.56666506  0.50946809  0.88854890    -0.82300
C1480       C  0.62797082  0.59565051  0.50975849     0.97100
O1481       O  0.63707947  0.56355990  0.51244631    -0.71400
O1482       O  0.56796096  0.54193057  0.97973438    -0.75000
Al1483     Al  0.60962665  0.52953307  0.97388483     1.49000
C1484       C  0.53492824  0.53215700  0.95744711     0.92400
O1485       O  0.53326666  0.59554373  0.90421124    -0.81200
O1486       O  0.63130151  0.58080401  0.90145313    -0.74700
Al1487     Al  0.55176896  0.55312810  0.89776395     1.90100
O1488       O  0.58363851  0.62703445  0.91249301    -0.73800
O1489       O  0.67502972  0.56879908  0.97129669    -0.73700
O1490       O  0.62178295  0.61235862  0.98153671    -0.79300
O1491       O  0.65272287  0.51585471  0.97062308    -0.77500
O1492       O  0.59605337  0.55903221  0.93747016    -1.13700
O1493       O  0.58291931  0.98883156  0.94304446    -0.72800
C1494       C  0.56737277  0.98449076  0.90862884     0.97900
C1495       C  0.54793414  0.62433491  0.90298106     0.94300
Al1496     Al  0.62617152  0.59481595  0.94169950     1.55600
O1497       O  0.52475358  0.53163617  0.92336944    -0.77500
C1498       C  0.68016162  0.53562568  0.97513653     0.98400
C1499       C  0.60345722  0.58202419  0.86983094     0.93300
O1500       O  0.56969885  0.57395720  0.86448420    -0.82800
O1501       O  0.93529022  0.75406760  0.85327665    -0.82300
C1502       C  0.87882803  0.84366916  0.73439877     0.97100
O1503       O  0.86988633  0.81155025  0.73156804    -0.71400
O1504       O  0.93972755  0.79134145  0.76606832    -0.75000
Al1505     Al  0.89697679  0.77748191  0.76972772     1.49000
C1506       C  0.97229740  0.78094481  0.78863174     0.92400
O1507       O  0.97502420  0.84091652  0.84627235    -0.81200
O1508       O  0.87457487  0.82770834  0.84226163    -0.74700
Al1509     Al  0.95341248  0.79816674  0.84786803     1.90100
O1510       O  0.92415100  0.87346699  0.83239557    -0.73800
O1511       O  0.83210352  0.81580780  0.77286712    -0.73700
O1512       O  0.88615855  0.85975622  0.76319138    -0.79300
O1513       O  0.85299625  0.76294543  0.77140249    -0.77500
O1514       O  0.91038689  0.80596034  0.80713087    -1.13700
O1515       O  0.92235290  0.73618139  0.79883821    -0.72800
C1516       C  0.93525877  0.73006580  0.83265015     0.97900
C1517       C  0.96036435  0.87018841  0.84527592     0.94300
Al1518     Al  0.88108484  0.84175793  0.80278690     1.55600
O1519       O  0.98127589  0.77845327  0.82243054    -0.77500
C1520       C  0.82623696  0.78270058  0.76813034     0.98400
C1521       C  0.90145721  0.82705373  0.87434356     0.93300
O1522       O  0.93484041  0.81738714  0.88067885    -0.82800
O1523       O  0.93324475  0.92192133  0.62670484    -0.82300
C1524       C  0.87273995  0.89777210  0.98149887     0.97100
O1525       O  0.87784402  0.88225952  0.50986631    -0.71400
O1526       O  0.91628021  0.86792250  0.57818758    -0.75000
Al1527     Al  0.87523489  0.90147209  0.54979589     1.49000
C1528       C  0.95221149  0.86930373  0.58842503     0.92400
O1529       O  0.97921299  0.96050770  0.56789196    -0.81200
O1530       O  0.92314607  0.50487361  0.54688377    -0.74700
Al1531     Al  0.95122122  0.94114356  0.59335834     1.90100
O1532       O  0.93664630  0.94878142  0.51171592    -0.73800
O1533       O  0.85204331  0.98108892  0.51861765    -0.73700
O1534       O  0.86602174  0.93034460  0.97835453    -0.79300
O1535       O  0.82819281  0.92951013  0.52092980    -0.77500
O1536       O  0.90686655  0.93571150  0.55351077    -1.13700
O1537       O  0.87140686  0.91647382  0.59057590    -0.72800
C1538       C  0.89974063  0.91400320  0.62177209     0.97900
C1539       C  0.96976944  0.95834680  0.53404525     0.94300
Al1540     Al  0.89503242  0.96435909  0.51653051     1.55600
O1541       O  0.96849147  0.89754300  0.58809832    -0.77500
C1542       C  0.82431668  0.96268404  0.51591448     0.98400
C1543       C  0.93698228  0.51026605  0.58106371     0.93300
O1544       O  0.93703452  0.98585317  0.60146660    -0.82800
C1545       C  0.86265129  0.86603072  0.89156968    -0.21800
C1546       C  0.89336355  0.84221686  0.90277075    -0.09800
C1547       C  0.91642419  0.83616119  0.94018872     0.29100
C1548       C  0.90851326  0.85359643  0.96552642    -0.21800
C1549       C  0.87832256  0.87797307  0.95401342    -0.09800
C1550       C  0.85550951  0.88403487  0.91682457     0.29100
F1551       F  0.82621321  0.90721074  0.90489635    -0.20300
H1552       H  0.84459210  0.87177377  0.86290907     0.17400
H1553       H  0.92686361  0.84893490  0.99440820     0.17400
F1554       F  0.94645638  0.81375653  0.95221062    -0.20300
C1555       C  0.85941833  0.85440303  0.66873845    -0.21800
C1556       C  0.88337427  0.86216621  0.70546523    -0.09800
C1557       C  0.91346842  0.88668792  0.71478441     0.29100
C1558       C  0.91854219  0.90399937  0.68764457    -0.21800
C1559       C  0.89362960  0.89730421  0.65080536    -0.09800
C1560       C  0.86430449  0.87179024  0.64158425     0.29100
F1561       F  0.84133326  0.86236208  0.60634962    -0.20300
H1562       H  0.83693470  0.83486684  0.66107213     0.17400
H1563       H  0.94207272  0.92242817  0.69541047     0.17400
F1564       F  0.93916168  0.89267458  0.75021605    -0.20300
C1565       C  0.78626184  0.51817969  0.50481806    -0.21800
C1566       C  0.78747129  0.98117945  0.50607920    -0.09800
C1567       C  0.75334045  0.96291608  0.49730025     0.29100
C1568       C  0.71913516  0.98105404  0.98711946    -0.21800
C1569       C  0.71776755  0.51813926  0.98570170    -0.09800
C1570       C  0.75201572  0.53656050  0.99488997     0.29100
F1571       F  0.75258929  0.57207115  0.99452257    -0.20300
H1572       H  0.81212184  0.53325336  0.51167993     0.17400
H1573       H  0.69345478  0.96571340  0.98031319     0.17400
F1574       F  0.75268279  0.92743074  0.49810940    -0.20300
C1575       C  0.99576787  0.98299307  0.96120244    -0.21800
C1576       C  0.51306469  0.51573330  0.97392386    -0.09800
C1577       C  0.52011927  0.52691666  0.50890648     0.29100
C1578       C  0.51096435  0.00552543  0.53091910    -0.21800
C1579       C  0.99250210  0.97344672  0.51778479    -0.09800
C1580       C  0.98545086  0.96202362  0.98283927     0.29100
F1581       F  0.96785567  0.93079330  0.96938239    -0.20300
H1582       H  0.99184603  0.97303521  0.93532912     0.17400
H1583       H  0.51656401  0.01473483  0.55749487     0.17400
F1584       F  0.53714646  0.55838116  0.52226428    -0.20300
C1585       C  0.02034001  0.89520974  0.89501994    -0.21800
C1586       C  0.98708279  0.89982482  0.86135130    -0.09800
C1587       C  0.48178953  0.93139388  0.84260610     0.29100
C1588       C  0.50959606  0.95783826  0.85721498    -0.21800
C1589       C  0.54263859  0.95362684  0.89129759    -0.09800
C1590       C  0.54760793  0.92205195  0.91021702     0.29100
F1591       F  0.57859055  0.91723176  0.94336675    -0.20300
H1592       H  0.02491135  0.87083077  0.90977956     0.17400
H1593       H  0.50443864  0.98225045  0.84239008     0.17400
F1594       F  0.45020882  0.93638596  0.80994691    -0.20300
C1595       C  0.50402087  0.66908494  0.90504418    -0.21800
C1596       C  0.52105138  0.65303799  0.88604199    -0.09800
C1597       C  0.50502415  0.65783258  0.84823411     0.29100
C1598       C  0.97389861  0.68020874  0.83005739    -0.21800
C1599       C  0.95867839  0.69866297  0.84943047    -0.09800
C1600       C  0.97325777  0.69199478  0.88701582     0.29100
F1601       F  0.95835208  0.70814938  0.90652423    -0.20300
H1602       H  0.51438204  0.66372541  0.93359277     0.17400
H1603       H  0.96305870  0.68445232  0.80110569     0.17400
F1604       F  0.51903318  0.64023158  0.82877534    -0.20300
C1605       C  0.59252732  0.61153980  0.77786954    -0.21800
C1606       C  0.62544416  0.63285082  0.78872376    -0.09800
C1607       C  0.65140518  0.63602349  0.82576234     0.29100
C1608       C  0.64452075  0.61809914  0.85151082    -0.21800
C1609       C  0.61109403  0.59732164  0.84092747    -0.09800
C1610       C  0.58508157  0.59425294  0.80367918     0.29100
F1611       F  0.55260100  0.57471014  0.79219551    -0.20300
H1612       H  0.57201262  0.60897019  0.74924466     0.17400
H1613       H  0.66504614  0.62136164  0.88000085     0.17400
F1614       F  0.68363663  0.65589430  0.83699326    -0.20300
C1615       C  0.59117724  0.63795963  0.52679919    -0.21800
C1616       C  0.62131047  0.61352021  0.53774425    -0.09800
C1617       C  0.64328048  0.60588628  0.57478181     0.29100
C1618       C  0.63591183  0.62296392  0.60044927    -0.21800
C1619       C  0.60586773  0.64739308  0.58973378    -0.09800
C1620       C  0.58316057  0.65448267  0.55255019     0.29100
F1621       F  0.55394135  0.67772490  0.54122600    -0.20300
H1622       H  0.57344864  0.64376718  0.49826189     0.17400
H1623       H  0.65347453  0.61652962  0.62894748     0.17400
F1624       F  0.67232051  0.58245974  0.58623823    -0.20300
C1625       C  0.97869543  0.55947909  0.58097185    -0.21800
C1626       C  0.96084894  0.54168325  0.59857036    -0.09800
C1627       C  0.47286062  0.54922219  0.63560445     0.29100
C1628       C  0.50358608  0.57230324  0.65485682    -0.21800
C1629       C  0.52340886  0.58769582  0.63789164    -0.09800
C1630       C  0.01000684  0.58183885  0.60047138     0.29100
F1631       F  0.02627672  0.59888681  0.58246674    -0.20300
H1632       H  0.96936003  0.55500592  0.55222938     0.17400
H1633       H  0.51170952  0.57853558  0.68303195     0.17400
F1634       F  0.45493917  0.03424310  0.65319948    -0.20300
C1635       C  0.52974361  0.81419940  0.65924196    -0.21800
C1636       C  0.53532635  0.78870776  0.63801357    -0.09800
C1637       C  0.51181689  0.78945746  0.59963443     0.29100
C1638       C  0.98317786  0.81472167  0.58344127    -0.21800
C1639       C  0.97733304  0.83936414  0.60504172    -0.09800
C1640       C  0.50121163  0.83938502  0.64293834     0.29100
F1641       F  0.49703045  0.86411976  0.66415361    -0.20300
H1642       H  0.54684619  0.81414050  0.68871822     0.17400
H1643       H  0.96597156  0.81536889  0.55405081     0.17400
F1644       F  0.51578584  0.76545130  0.57764362    -0.20300
C1645       C  0.75517395  0.78579237  0.74850608    -0.21800
C1646       C  0.78812352  0.76585227  0.75770263    -0.09800
C1647       C  0.78435571  0.72886404  0.75632274     0.29100
C1648       C  0.74851619  0.71265026  0.74446757    -0.21800
C1649       C  0.71540505  0.73245493  0.73460122    -0.09800
C1650       C  0.71934207  0.76946992  0.73747256     0.29100
F1651       F  0.68869405  0.79018899  0.72981593    -0.20300
H1652       H  0.75706764  0.81408491  0.74977866     0.17400
H1653       H  0.74684393  0.68434168  0.74351460     0.17400
F1654       F  0.81542676  0.70791602  0.76693430    -0.20300
C1655       C  0.51271420  0.73353284  0.78508350    -0.21800
C1656       C  0.99455622  0.76563335  0.77220365    -0.09800
C1657       C  0.98681577  0.77692276  0.73698920     0.29100
C1658       C  0.99535777  0.75573052  0.71460569    -0.21800
C1659       C  0.51283698  0.72337214  0.72718192    -0.09800
C1660       C  0.52147808  0.71236026  0.76271508     0.29100
F1661       F  0.53958458  0.68150864  0.77616134    -0.20300
H1662       H  0.51856339  0.72417321  0.81177080     0.17400
H1663       H  0.99033048  0.76551189  0.68829033     0.17400
F1664       F  0.96976329  0.80821587  0.72375305    -0.20300
loop_ 
_geom_bond_atom_site_label_1 
_geom_bond_atom_site_label_2 
_geom_bond_distance 
_geom_bond_site_symmetry_2 
_ccdc_geom_bond_type 
O1           C16   1.279       .  A
O1           Al9   1.988       .  S
C2           O12   1.272       .  A
C2            O3   1.253       .  A
C2          C150   1.475       .  S
O3           Al5   1.866       .  S
O4            C6   1.278       .  A
O4           Al5   1.992       .  S
Al5          O13   1.996       .  S
Al5          O15   1.861       .  S
Al5          O14   1.755       .  S
C6           O19   1.252       .  A
C6          C173   1.470       .  S
O7           C17   1.276       .  A
O7           Al9   1.992       .  S
O8           C21   1.278       .  A
O8          Al18   1.977       .  S
Al9          O22   1.868       .  S
Al9          O19   1.862       .  S
Al9          O14   1.763       .  S
O10          C17   1.244       .  A
O10         Al18   1.840       .  S
O11          C20   1.257       .  A
O11         Al18   1.870       .  S
O12         Al18   1.955       .  S
O13          C20   1.283       .  A
O14         Al18   1.757       .  S
O15          C16   1.257       .  A
C16         C163   1.480       .  S
C17         C203   1.464       .  S
C20         C193   1.499       .  S
C21          O22   1.257       .  A
C21         C180   1.485       .  S
O23         C454   1.258   1_545  A
O23         Al31   1.873       .  S
C24          O25   1.270       .  A
C24         O242   1.253   1_554  A
C24         C160   1.478       .  S
O25        Al235   1.949   1_554  S
O26          C28   1.247       .  A
O26         Al27   1.839       .  S
Al27         O35   1.849       .  S
Al27        O233   1.949       .  S
Al27        O453   1.969   1_545  S
Al27         O36   1.756       .  S
C28          O41   1.278       .  A
C28         C120   1.468       .  S
O29          C39   1.252       .  A
O29         Al31   1.854       .  S
O30          C43   1.256       .  A
O30         Al40   1.858       .  S
Al31         O44   1.990       .  S
Al31         O41   2.000       .  S
Al31         O36   1.763       .  S
O32          C39   1.276       .  A
O32         Al40   1.978       .  S
O33          C42   1.283       .  A
O33         Al40   2.002       .  S
O34         C232   1.253       .  A
O34         Al40   1.871       .  S
O35          C42   1.256       .  A
O36         Al40   1.759       .  S
O37          C38   1.274       .  A
O37        Al443   1.969       .  S
C38         O439   1.258       .  A
C38         C133   1.479       .  S
C39         C140   1.461       .  S
C42         C113   1.498       .  S
C43          O44   1.279       .  A
C43         C153   1.487       .  S
O45          C60   1.257       .  A
O45         Al53   1.880       .  S
C46          O56   1.253       .  A
C46          O47   1.265       .  A
C46         C100   1.475       .  S
O47         Al49   1.941       .  S
O48          C50   1.249       .  A
O48         Al49   1.839       .  S
Al49         O57   1.852       .  S
Al49         O59   1.957       .  S
Al49         O58   1.763       .  S
C50          O63   1.280       .  A
C50         C200   1.469       .  S
O51          C61   1.255       .  A
O51         Al53   1.853       .  S
O52          C65   1.254       .  A
O52         Al62   1.854       .  S
Al53         O66   1.974       .  S
Al53         O63   2.003       .  S
Al53         O58   1.771       .  S
O54          C61   1.276       .  A
O54         Al62   1.970       .  S
O55          C64   1.283       .  A
O55         Al62   1.996       .  S
O56         Al62   1.878       .  S
O57          C64   1.257       .  A
O58         Al62   1.752       .  S
O59          C60   1.271       .  A
C60         C143   1.478       .  S
C61         C130   1.471       .  S
C64         C190   1.497       .  S
C65          O66   1.274       .  A
C65          C90   1.482       .  S
O67          C82   1.274       .  A
O67         Al75   1.970       .  S
C68          O78   1.268       .  A
C68         O277   1.250       .  A
C68          C93   1.474       .  S
O69         C276   1.250   1_554  A
O69         Al71   1.864       .  S
O70          C72   1.276       .  A
O70         Al71   1.971       .  S
Al71         O79   1.990       .  S
Al71         O81   1.864       .  S
Al71         O80   1.758       .  S
C72          O85   1.255       .  A
C72         C183   1.462       .  S
O73          C83   1.277       .  A
O73         Al75   1.994       .  S
O74          C87   1.276       .  A
O74        Al500   1.975   1_545  S
Al75         O88   1.882       .  S
Al75         O85   1.857       .  S
Al75         O80   1.765       .  S
O76          C83   1.248       .  A
O76         Al84   1.849       .  S
O77          C86   1.257       .  A
O77         Al84   1.858       .  S
O78        Al292   1.946       .  S
O79          C86   1.283       .  A
O80         Al84   1.761       .  S
O81          C82   1.255       .  A
C82         C103   1.480       .  S
C83         C123   1.469       .  S
Al84        O490   1.974       .  S
Al84        O286   1.946   1_554  S
C86         C110   1.496       .  S
C87         O504   1.260   1_545  A
C87         C170   1.484       .  S
O88         C503   1.260       .  A
C89          C90   1.413       .  A
C89          C94   1.393       .  A
C89          H96   1.085       .  S
C90          C91   1.403       .  A
C91          C92   1.403       .  A
C91          F98   1.358       .  S
C92          C93   1.412       .  A
C92          H97   1.086       .  S
C93          C94   1.394       .  A
C94          F95   1.357       .  S
C99         C100   1.397       .  A
C99         C104   1.397       .  A
C99         H106   1.083       .  S
C100        C101   1.411       .  A
C101        C102   1.399       .  A
C101        F108   1.357       .  S
C102        C103   1.399       .  A
C102        H107   1.083       .  S
C103        C104   1.416       .  A
C104        F105   1.358       .  S
C109        C526   1.418   1_545  A
C109        C322   1.407   1_554  A
C109        H116   1.083       .  S
C110        C111   1.400   1_554  A
C110        C525   1.418       .  A
C111        C320   1.399       .  A
C111        F118   1.357       .  S
C112        C319   1.399       .  A
C112        C529   1.416       .  A
C112        H117   1.083       .  S
C113        C114   1.404       .  A
C113        C528   1.416   1_545  A
C114        C317   1.407       .  A
C114        F115   1.357       .  S
C119        C124   1.398       .  A
C119       C1368   1.399       .  A
C119        H126   1.082       .  S
C120       C1367   1.399   1_445  A
C120        C329   1.413       .  A
C121        C328   1.413   1_554  A
C121        C538   1.395       .  A
C121        F128   1.359       .  S
C122        C537   1.395       .  A
C122        C955   1.396   1_455  A
C122        H127   1.079       .  S
C123        C954   1.396       .  A
C123        C332   1.413   1_554  A
C124        C331   1.413       .  A
C124        F125   1.358       .  S
C129        C130   1.409       .  A
C129        C966   1.399       .  A
C129        H136   1.083       .  S
C130        C963   1.397       .  A
C131        C132   1.398   1_655  A
C131        C962   1.397       .  A
C131        F138   1.357       .  S
C132        C133   1.413       .  A
C132        H137   1.083       .  S
C133        C134   1.402       .  A
C134        C961   1.399       .  A
C134        F135   1.357       .  S
C139        C140   1.401       .  A
C139        C976   1.399   1_455  A
C139        H146   1.077       .  S
C140        C141   1.403       .  A
C141        C974   1.396   1_455  A
C141        F148   1.358       .  S
C142        C143   1.405       .  A
C142        C973   1.396       .  A
C142        H147   1.083       .  S
C143        C144   1.411       .  A
C144        C971   1.399       .  A
C144        F145   1.358       .  S
C149        C150   1.411       .  A
C149        C154   1.402       .  A
C149        H156   1.083       .  S
C150        C151   1.396       .  A
C151        C152   1.399       .  A
C151        F158   1.357       .  S
C152        C153   1.416       .  A
C152        H157   1.082       .  S
C153        C154   1.402       .  A
C154        F155   1.357       .  S
C159        C160   1.414       .  A
C159        C164   1.404       .  A
C159        H166   1.079   1_554  S
C160        C161   1.397       .  A
C161        C162   1.396       .  A
C161        F168   1.357       .  S
C162        C163   1.412       .  A
C162        H167   1.082       .  S
C163        C164   1.401       .  A
C164        F165   1.357       .  S
C169        C170   1.404       .  A
C169        C174   1.400       .  A
C169        H176   1.085       .  S
C170       C1003   1.411       .  A
C171        C172   1.401   1_655  A
C171       C1002   1.411       .  A
C171        F594   1.358       .  S
C172        C173   1.403       .  A
C172        H177   1.085       .  S
C173       C1006   1.405       .  A
C174       C1005   1.405       .  A
C174        F175   1.357       .  S
F178        C587   1.358       .  S
C179        C180   1.403       .  A
C179        C184   1.396       .  A
C179        H186   1.085       .  S
C180        C181   1.419       .  A
C181       C1014   1.400   1_455  A
C181        F188   1.358       .  S
C182        C183   1.396       .  A
C182       C1013   1.400       .  A
C182        H187   1.083       .  S
C183       C1016   1.404       .  A
C184       C1015   1.404   1_455  A
C184        F185   1.358   1_455  S
C189        C190   1.401       .  A
C189        C194   1.407       .  A
C189        H196   1.083       .  S
C190        C191   1.419       .  A
C191        C192   1.400       .  A
C191        F198   1.358       .  S
C192        C193   1.399       .  A
C192        H197   1.083       .  S
C193        C194   1.421       .  A
C194        F195   1.357       .  S
C199        C204   1.397       .  A
C199       C1032   1.397   1_455  A
C199        H206   1.082       .  S
C200        C201   1.414       .  A
C200       C1031   1.397       .  A
C201        C202   1.393       .  A
C201        F208   1.358       .  S
C202       C1035   1.396       .  A
C202        H207   1.082       .  S
C203        C204   1.414       .  A
C203       C1034   1.396   1_455  A
C204        F205   1.359       .  S
O209        C224   1.279       .  A
O209       Al217   1.988       .  S
C210        O220   1.272       .  A
C210        O211   1.253       .  A
C210        C358   1.475       .  S
O211       Al213   1.866       .  S
O212        C214   1.278       .  A
O212       Al213   1.992       .  S
Al213       O221   1.996       .  S
Al213       O223   1.861       .  S
Al213       O222   1.755       .  S
C214        O227   1.252       .  A
C214        C381   1.470       .  S
O215        C225   1.276       .  A
O215       Al217   1.992       .  S
O216        C229   1.278       .  A
O216       Al226   1.977       .  S
Al217       O230   1.868       .  S
Al217       O227   1.862       .  S
Al217       O222   1.763       .  S
O218        C225   1.244       .  A
O218       Al226   1.840       .  S
O219        C228   1.257       .  A
O219       Al226   1.870       .  S
O220       Al226   1.956       .  S
O221        C228   1.283       .  A
O222       Al226   1.757       .  S
O223        C224   1.257       .  A
C224        C371   1.480       .  S
C225        C411   1.464       .  S
C228        C401   1.499       .  S
C229        O230   1.257       .  A
C229        C388   1.485       .  S
O231        C662   1.258   1_545  A
O231       Al239   1.873       .  S
C232        O233   1.270       .  A
C232        C368   1.478       .  S
O234        C236   1.247       .  A
O234       Al235   1.839       .  S
Al235       O243   1.849       .  S
Al235       O661   1.969   1_545  S
Al235       O244   1.756       .  S
C236        O249   1.278       .  A
C236        C328   1.468       .  S
O237        C247   1.252       .  A
O237       Al239   1.854       .  S
O238        C251   1.256       .  A
O238       Al248   1.859       .  S
Al239       O252   1.990       .  S
Al239       O249   2.000       .  S
Al239       O244   1.763       .  S
O240        C247   1.276       .  A
O240       Al248   1.977       .  S
O241        C250   1.283       .  A
O241       Al248   2.002       .  S
O242       Al248   1.871       .  S
O243        C250   1.256       .  A
O244       Al248   1.760       .  S
O245        C246   1.274       .  A
O245       Al651   1.969       .  S
C246        O647   1.258       .  A
C246        C341   1.479       .  S
C247        C348   1.461       .  S
C250        C321   1.498       .  S
C251        O252   1.279       .  A
C251        C361   1.487       .  S
O253        C268   1.257       .  A
O253       Al261   1.880       .  S
C254        O264   1.253       .  A
C254        O255   1.265       .  A
C254        C308   1.475       .  S
O255       Al257   1.940       .  S
O256        C258   1.249       .  A
O256       Al257   1.839       .  S
Al257       O265   1.852       .  S
Al257       O267   1.957       .  S
Al257       O266   1.763       .  S
C258        O271   1.280       .  A
C258        C408   1.469       .  S
O259        C269   1.255       .  A
O259       Al261   1.853       .  S
O260        C273   1.254       .  A
O260       Al270   1.854       .  S
Al261       O274   1.974       .  S
Al261       O271   2.002       .  S
Al261       O266   1.771       .  S
O262        C269   1.276       .  A
O262       Al270   1.970       .  S
O263        C272   1.284       .  A
O263       Al270   1.996       .  S
O264       Al270   1.878       .  S
O265        C272   1.257       .  A
O266       Al270   1.752       .  S
O267        C268   1.271       .  A
C268        C351   1.478       .  S
C269        C338   1.471       .  S
C272        C398   1.497       .  S
C273        O274   1.274       .  A
C273        C298   1.482       .  S
O275        C290   1.274       .  A
O275       Al283   1.970       .  S
C276        O286   1.268       .  A
C276        C301   1.474       .  S
O277       Al279   1.864       .  S
O278        C280   1.276       .  A
O278       Al279   1.971       .  S
Al279       O287   1.990       .  S
Al279       O289   1.864       .  S
Al279       O288   1.758       .  S
C280        O293   1.255       .  A
C280        C391   1.462       .  S
O281        C291   1.277       .  A
O281       Al283   1.994       .  S
O282        C295   1.276       .  A
O282       Al708   1.974   1_545  S
Al283       O296   1.882       .  S
Al283       O293   1.857       .  S
Al283       O288   1.765       .  S
O284        C291   1.248       .  A
O284       Al292   1.849       .  S
O285        C294   1.257       .  A
O285       Al292   1.858       .  S
O287        C294   1.283       .  A
O288       Al292   1.761       .  S
O289        C290   1.255       .  A
C290        C311   1.480       .  S
C291        C331   1.469       .  S
Al292       O698   1.975       .  S
C294        C318   1.496       .  S
C295        O712   1.260   1_545  A
C295        C378   1.484       .  S
O296        C711   1.260       .  A
C297        C298   1.413       .  A
C297        C302   1.393       .  A
C297        H304   1.085       .  S
C298        C299   1.403       .  A
C299        C300   1.403       .  A
C299        F306   1.358       .  S
C300        C301   1.412       .  A
C300        H305   1.086       .  S
C301        C302   1.394       .  A
C302        F303   1.357       .  S
C307        C308   1.397       .  A
C307        C312   1.397       .  A
C307        H314   1.083       .  S
C308        C309   1.411       .  A
C309        C310   1.399       .  A
C309        F316   1.357       .  S
C310        C311   1.399       .  A
C310        H315   1.083       .  S
C311        C312   1.416       .  A
C312        F313   1.358       .  S
C317        C734   1.418   1_545  A
C317        H324   1.083       .  S
C318        C733   1.418       .  A
C318        C319   1.400       .  A
C319        F326   1.357       .  S
C320        C737   1.416       .  A
C320        H325   1.083       .  S
C321        C736   1.416   1_545  A
C321        C322   1.404       .  A
C322        F323   1.357       .  S
C327       C1576   1.399       .  A
C327        C332   1.398       .  A
C327        H334   1.082       .  S
C328       C1575   1.399   1_445  A
C329        C746   1.395       .  A
C329        F336   1.359       .  S
C330        C745   1.395       .  A
C330       C1163   1.396   1_455  A
C330        H335   1.079       .  S
C331       C1162   1.396       .  A
C332        F333   1.358       .  S
C337        C338   1.409       .  A
C337       C1174   1.399       .  A
C337        H344   1.083       .  S
C338       C1171   1.397       .  A
C339       C1170   1.397       .  A
C339        C340   1.398   1_655  A
C339        F346   1.357       .  S
C340        C341   1.413       .  A
C340        H345   1.083       .  S
C341        C342   1.402       .  A
C342       C1169   1.399       .  A
C342        F343   1.357       .  S
C347        C348   1.401       .  A
C347       C1184   1.399   1_455  A
C347        H354   1.077       .  S
C348        C349   1.402       .  A
C349       C1182   1.396   1_455  A
C349        F356   1.358       .  S
C350       C1181   1.396       .  A
C350        C351   1.405       .  A
C350        H355   1.083       .  S
C351        C352   1.411       .  A
C352       C1179   1.399       .  A
C352        F353   1.358       .  S
C357        C358   1.411       .  A
C357        C362   1.402       .  A
C357        H364   1.083       .  S
C358        C359   1.396       .  A
C359        C360   1.399       .  A
C359        F366   1.357       .  S
C360        C361   1.416       .  A
C360        H365   1.082       .  S
C361        C362   1.402       .  A
C362        F363   1.357       .  S
C367        C368   1.414       .  A
C367        C372   1.404       .  A
C367        H374   1.079       .  S
C368        C369   1.397       .  A
C369        C370   1.396       .  A
C369        F376   1.357       .  S
C370        C371   1.412       .  A
C370        H375   1.082       .  S
C371        C372   1.401       .  A
C372        F373   1.357       .  S
C377        C378   1.404       .  A
C377        C382   1.400       .  A
C377        H384   1.085       .  S
C378       C1211   1.411       .  A
C379       C1210   1.411       .  A
C379        C380   1.401   1_655  A
C379        F802   1.358       .  S
C380        C381   1.403       .  A
C380        H385   1.085       .  S
C381       C1214   1.405       .  A
C382       C1213   1.405       .  A
C382        F383   1.357       .  S
F386        C795   1.358       .  S
C387        C388   1.403       .  A
C387        C392   1.396       .  A
C387        H394   1.085       .  S
C388        C389   1.419       .  A
C389       C1222   1.400   1_455  A
C389        F396   1.358       .  S
C390       C1221   1.400       .  A
C390        C391   1.396       .  A
C390        H395   1.083       .  S
C391       C1224   1.404       .  A
C392       C1223   1.404   1_455  A
C392        F393   1.358   1_455  S
C397        C398   1.401       .  A
C397        C402   1.407       .  A
C397        H404   1.083       .  S
C398        C399   1.419       .  A
C399        C400   1.400       .  A
C399        F406   1.358       .  S
C400        C401   1.399       .  A
C400        H405   1.083       .  S
C401        C402   1.421       .  A
C402        F403   1.357       .  S
C407       C1240   1.397   1_455  A
C407        C412   1.397       .  A
C407        H414   1.082       .  S
C408       C1239   1.397       .  A
C408        C409   1.414       .  A
C409        C410   1.393       .  A
C409        F416   1.358       .  S
C410       C1243   1.396       .  A
C410        H415   1.082       .  S
C411       C1242   1.396   1_455  A
C411        C412   1.414       .  A
C412        F413   1.359       .  S
O417        C432   1.279       .  A
O417       Al425   1.988       .  S
C418        O428   1.272       .  A
C418        O419   1.253       .  A
C418        C566   1.475       .  S
O419       Al421   1.866       .  S
O420        C422   1.278       .  A
O420       Al421   1.992       .  S
Al421       O429   1.996       .  S
Al421       O431   1.861       .  S
Al421       O430   1.755       .  S
C422        O435   1.252       .  A
C422        C589   1.470       .  S
O423        C433   1.276       .  A
O423       Al425   1.992       .  S
O424        C437   1.278       .  A
O424       Al434   1.977       .  S
Al425       O438   1.868       .  S
Al425       O435   1.862       .  S
Al425       O430   1.763       .  S
O426        C433   1.244       .  A
O426       Al434   1.840       .  S
O427        C436   1.257       .  A
O427       Al434   1.870       .  S
O428       Al434   1.956       .  S
O429        C436   1.283       .  A
O430       Al434   1.757       .  S
O431        C432   1.257       .  A
C432        C579   1.480       .  S
C433        C619   1.464       .  S
C436        C609   1.499       .  S
C437        O438   1.257       .  A
C437        C596   1.485       .  S
O439       Al447   1.873       .  S
C440        O658   1.253   1_554  A
C440        O441   1.270       .  A
C440        C576   1.478       .  S
O441       Al651   1.949   1_554  S
O442        C444   1.247       .  A
O442       Al443   1.839       .  S
Al443       O649   1.949       .  S
Al443       O451   1.849       .  S
Al443       O452   1.756       .  S
C444        O457   1.278       .  A
C444        C536   1.468       .  S
O445        C455   1.252       .  A
O445       Al447   1.854       .  S
O446        C459   1.256       .  A
O446       Al456   1.859       .  S
Al447       O460   1.990       .  S
Al447       O457   2.000       .  S
Al447       O452   1.763       .  S
O448        C455   1.276       .  A
O448       Al456   1.977       .  S
O449        C458   1.283       .  A
O449       Al456   2.002       .  S
O450        C648   1.253       .  A
O450       Al456   1.871       .  S
O451        C458   1.256       .  A
O452       Al456   1.760       .  S
O453        C454   1.274       .  A
C454        C549   1.479       .  S
C455        C556   1.461       .  S
C458        C529   1.498       .  S
C459        O460   1.279       .  A
C459        C569   1.487       .  S
O461        C476   1.257       .  A
O461       Al469   1.880       .  S
C462        O472   1.253       .  A
C462        O463   1.265       .  A
C462        C516   1.475       .  S
O463       Al465   1.940       .  S
O464        C466   1.249       .  A
O464       Al465   1.839       .  S
Al465       O473   1.852       .  S
Al465       O475   1.957       .  S
Al465       O474   1.763       .  S
C466        O479   1.280       .  A
C466        C616   1.469       .  S
O467        C477   1.255       .  A
O467       Al469   1.853       .  S
O468        C481   1.254       .  A
O468       Al478   1.854       .  S
Al469       O482   1.974       .  S
Al469       O479   2.002       .  S
Al469       O474   1.771       .  S
O470        C477   1.276       .  A
O470       Al478   1.970       .  S
O471        C480   1.284       .  A
O471       Al478   1.996       .  S
O472       Al478   1.878       .  S
O473        C480   1.257       .  A
O474       Al478   1.752       .  S
O475        C476   1.271       .  A
C476        C559   1.478       .  S
C477        C546   1.471       .  S
C480        C606   1.497       .  S
C481        O482   1.274       .  A
C481        C506   1.482       .  S
O483        C498   1.274       .  A
O483       Al491   1.970       .  S
C484        O494   1.268       .  A
C484        O693   1.250       .  A
C484        C509   1.474       .  S
O485        C692   1.250   1_554  A
O485       Al487   1.864       .  S
O486        C488   1.276       .  A
O486       Al487   1.971       .  S
Al487       O495   1.990       .  S
Al487       O497   1.864       .  S
Al487       O496   1.758       .  S
C488        O501   1.255       .  A
C488        C599   1.462       .  S
O489        C499   1.277       .  A
O489       Al491   1.994       .  S
O490        C503   1.276       .  A
Al491       O504   1.882       .  S
Al491       O501   1.857       .  S
Al491       O496   1.765       .  S
O492        C499   1.248       .  A
O492       Al500   1.849       .  S
O493        C502   1.257       .  A
O493       Al500   1.858       .  S
O494       Al708   1.946       .  S
O495        C502   1.283       .  A
O496       Al500   1.761       .  S
O497        C498   1.255       .  A
C498        C519   1.480       .  S
C499        C539   1.469       .  S
Al500       O702   1.946   1_554  S
C502        C526   1.496       .  S
C503        C586   1.484       .  S
C505        C506   1.413       .  A
C505        C510   1.393       .  A
C505        H512   1.085       .  S
C506        C507   1.403       .  A
C507        C508   1.403       .  A
C507        F514   1.358       .  S
C508        C509   1.412       .  A
C508        H513   1.086       .  S
C509        C510   1.394       .  A
C510        F511   1.357       .  S
C515        C516   1.397       .  A
C515        C520   1.397       .  A
C515        H522   1.083       .  S
C516        C517   1.411       .  A
C517        C518   1.399       .  A
C517        F524   1.357       .  S
C518        C519   1.399       .  A
C518        H523   1.083       .  S
C519        C520   1.416       .  A
C520        F521   1.358       .  S
C525        C738   1.407   1_554  A
C525        H532   1.083       .  S
C526        C527   1.400   1_554  A
C527        C736   1.399       .  A
C527        F534   1.357       .  S
C528        C735   1.399       .  A
C528        H533   1.083       .  S
C529        C530   1.404       .  A
C530        C733   1.407       .  A
C530        F531   1.357       .  S
C535        C952   1.399   1_565  A
C535        C540   1.398       .  A
C535        H542   1.082       .  S
C536        C951   1.399   1_455  A
C536        C745   1.413       .  A
C537        C744   1.413   1_554  A
C537        F544   1.359       .  S
C538       C1371   1.396   1_445  A
C538        H543   1.079       .  S
C539       C1370   1.396   1_565  A
C539        C748   1.413   1_554  A
C540        C747   1.413       .  A
C540        F541   1.358       .  S
C545        C546   1.409       .  A
C545       C1382   1.399       .  A
C545        H552   1.083       .  S
C546       C1379   1.397       .  A
C547       C1378   1.397       .  A
C547        C548   1.398   1_655  A
C547        F554   1.357       .  S
C548        C549   1.412       .  A
C548        H553   1.083       .  S
C549        C550   1.402       .  A
C550       C1377   1.399       .  A
C550        F551   1.357       .  S
C555        C556   1.401       .  A
C555       C1392   1.399   1_455  A
C555        H562   1.077       .  S
C556        C557   1.402       .  A
C557       C1390   1.396   1_455  A
C557        F564   1.358       .  S
C558       C1389   1.396       .  A
C558        C559   1.405       .  A
C558        H563   1.083       .  S
C559        C560   1.411       .  A
C560       C1387   1.399       .  A
C560        F561   1.358       .  S
C565        C566   1.411       .  A
C565        C570   1.402       .  A
C565        H572   1.083       .  S
C566        C567   1.396       .  A
C567        C568   1.399       .  A
C567        F574   1.357       .  S
C568        C569   1.416       .  A
C568        H573   1.082       .  S
C569        C570   1.402       .  A
C570        F571   1.357       .  S
C575        C576   1.414       .  A
C575        C580   1.404       .  A
C575        H582   1.079   1_554  S
C576        C577   1.397       .  A
C577        C578   1.396       .  A
C577        F584   1.357       .  S
C578        C579   1.412       .  A
C578        H583   1.082       .  S
C579        C580   1.401       .  A
C580        F581   1.357       .  S
C585        C586   1.404       .  A
C585        C590   1.400       .  A
C585        H592   1.085       .  S
C586       C1419   1.411       .  A
C587       C1418   1.411       .  A
C587        C588   1.401   1_655  A
C588        C589   1.403       .  A
C588        H593   1.085       .  S
C589       C1422   1.405       .  A
C590       C1421   1.405       .  A
C590        F591   1.357       .  S
C595        C596   1.403       .  A
C595        C600   1.396       .  A
C595        H602   1.085       .  S
C596        C597   1.419       .  A
C597       C1430   1.400   1_455  A
C597        F604   1.358       .  S
C598       C1429   1.400       .  A
C598        C599   1.396       .  A
C598        H603   1.083       .  S
C599       C1432   1.404       .  A
C600       C1431   1.404   1_455  A
C600        F601   1.358   1_455  S
C605        C606   1.401       .  A
C605        C610   1.407       .  A
C605        H612   1.083       .  S
C606        C607   1.419       .  A
C607        C608   1.400       .  A
C607        F614   1.358       .  S
C608        C609   1.399       .  A
C608        H613   1.083       .  S
C609        C610   1.421       .  A
C610        F611   1.357       .  S
C615       C1448   1.397   1_455  A
C615        C620   1.397       .  A
C615        H622   1.082       .  S
C616       C1447   1.397       .  A
C616        C617   1.414       .  A
C617        C618   1.393       .  A
C617        F624   1.358       .  S
C618       C1451   1.396       .  A
C618        H623   1.082       .  S
C619       C1450   1.396   1_455  A
C619        C620   1.414       .  A
C620        F621   1.359       .  S
O625        C640   1.279       .  A
O625       Al633   1.988       .  S
C626        O636   1.272       .  A
C626        O627   1.253       .  A
C626        C774   1.475       .  S
O627       Al629   1.866       .  S
O628        C630   1.278       .  A
O628       Al629   1.992       .  S
Al629       O637   1.996       .  S
Al629       O639   1.861       .  S
Al629       O638   1.755       .  S
C630        O643   1.252       .  A
C630        C797   1.470       .  S
O631        C641   1.276       .  A
O631       Al633   1.992       .  S
O632        C645   1.278       .  A
O632       Al642   1.977       .  S
Al633       O646   1.868       .  S
Al633       O643   1.862       .  S
Al633       O638   1.763       .  S
O634        C641   1.244       .  A
O634       Al642   1.840       .  S
O635        C644   1.257       .  A
O635       Al642   1.870       .  S
O636       Al642   1.955       .  S
O637        C644   1.283       .  A
O638       Al642   1.757       .  S
O639        C640   1.257       .  A
C640        C787   1.480       .  S
C641        C827   1.464       .  S
C644        C817   1.499       .  S
C645        O646   1.257       .  A
C645        C804   1.485       .  S
O647       Al655   1.873       .  S
C648        O649   1.270       .  A
C648        C784   1.478       .  S
O650        C652   1.247       .  A
O650       Al651   1.839       .  S
Al651       O659   1.849       .  S
Al651       O660   1.756       .  S
C652        O665   1.278       .  A
C652        C744   1.468       .  S
O653        C663   1.252       .  A
O653       Al655   1.854       .  S
O654        C667   1.256       .  A
O654       Al664   1.858       .  S
Al655       O668   1.990       .  S
Al655       O665   2.000       .  S
Al655       O660   1.763       .  S
O656        C663   1.276       .  A
O656       Al664   1.978       .  S
O657        C666   1.283       .  A
O657       Al664   2.002       .  S
O658       Al664   1.871       .  S
O659        C666   1.256       .  A
O660       Al664   1.759       .  S
O661        C662   1.274       .  A
C662        C757   1.479       .  S
C663        C764   1.461       .  S
C666        C737   1.498       .  S
C667        O668   1.279       .  A
C667        C777   1.487       .  S
O669        C684   1.257       .  A
O669       Al677   1.880       .  S
C670        O680   1.253       .  A
C670        O671   1.265       .  A
C670        C724   1.475       .  S
O671       Al673   1.941       .  S
O672        C674   1.249       .  A
O672       Al673   1.839       .  S
Al673       O681   1.852       .  S
Al673       O683   1.957       .  S
Al673       O682   1.763       .  S
C674        O687   1.280       .  A
C674        C824   1.469       .  S
O675        C685   1.255       .  A
O675       Al677   1.853       .  S
O676        C689   1.254       .  A
O676       Al686   1.854       .  S
Al677       O690   1.974       .  S
Al677       O687   2.003       .  S
Al677       O682   1.771       .  S
O678        C685   1.276       .  A
O678       Al686   1.970       .  S
O679        C688   1.283       .  A
O679       Al686   1.996       .  S
O680       Al686   1.878       .  S
O681        C688   1.257       .  A
O682       Al686   1.752       .  S
O683        C684   1.271       .  A
C684        C767   1.478       .  S
C685        C754   1.471       .  S
C688        C814   1.497       .  S
C689        O690   1.274       .  A
C689        C714   1.482       .  S
O691        C706   1.274       .  A
O691       Al699   1.970       .  S
C692        O702   1.268       .  A
C692        C717   1.474       .  S
O693       Al695   1.864       .  S
O694        C696   1.276       .  A
O694       Al695   1.971       .  S
Al695       O703   1.990       .  S
Al695       O705   1.864       .  S
Al695       O704   1.758       .  S
C696        O709   1.255       .  A
C696        C807   1.462       .  S
O697        C707   1.277       .  A
O697       Al699   1.994       .  S
O698        C711   1.276       .  A
Al699       O712   1.882       .  S
Al699       O709   1.857       .  S
Al699       O704   1.765       .  S
O700        C707   1.248       .  A
O700       Al708   1.849       .  S
O701        C710   1.257       .  A
O701       Al708   1.858       .  S
O703        C710   1.283       .  A
O704       Al708   1.761       .  S
O705        C706   1.255       .  A
C706        C727   1.480       .  S
C707        C747   1.469       .  S
C710        C734   1.496       .  S
C711        C794   1.484       .  S
C713        C714   1.413       .  A
C713        C718   1.393       .  A
C713        H720   1.085       .  S
C714        C715   1.403       .  A
C715        C716   1.403       .  A
C715        F722   1.358       .  S
C716        C717   1.412       .  A
C716        H721   1.086       .  S
C717        C718   1.394       .  A
C718        F719   1.357       .  S
C723        C724   1.397       .  A
C723        C728   1.397       .  A
C723        H730   1.083       .  S
C724        C725   1.411       .  A
C725        C726   1.399       .  A
C725        F732   1.357       .  S
C726        C727   1.399       .  A
C726        H731   1.083       .  S
C727        C728   1.416       .  A
C728        F729   1.358       .  S
C733        H740   1.083       .  S
C734        C735   1.400       .  A
C735        F742   1.357       .  S
C736        H741   1.083       .  S
C737        C738   1.404       .  A
C738        F739   1.357       .  S
C743       C1160   1.399   1_565  A
C743        C748   1.398       .  A
C743        H750   1.082       .  S
C744       C1159   1.399   1_455  A
C745        F752   1.359       .  S
C746       C1579   1.396   1_445  A
C746        H751   1.079       .  S
C747       C1578   1.396   1_565  A
C748        F749   1.358       .  S
C753        C754   1.409       .  A
C753       C1590   1.399       .  A
C753        H760   1.083       .  S
C754       C1587   1.397       .  A
C755       C1586   1.397       .  A
C755        C756   1.398   1_655  A
C755        F762   1.357       .  S
C756        C757   1.413       .  A
C756        H761   1.083       .  S
C757        C758   1.402       .  A
C758       C1585   1.399       .  A
C758        F759   1.357       .  S
C763        C764   1.401       .  A
C763       C1600   1.399   1_455  A
C763        H770   1.077       .  S
C764        C765   1.403       .  A
C765       C1598   1.396   1_455  A
C765        F772   1.358       .  S
C766       C1597   1.396       .  A
C766        C767   1.405       .  A
C766        H771   1.083       .  S
C767        C768   1.411       .  A
C768       C1595   1.399       .  A
C768        F769   1.358       .  S
C773        C774   1.411       .  A
C773        C778   1.402       .  A
C773        H780   1.083       .  S
C774        C775   1.396       .  A
C775        C776   1.399       .  A
C775        F782   1.357       .  S
C776        C777   1.416       .  A
C776        H781   1.082       .  S
C777        C778   1.402       .  A
C778        F779   1.357       .  S
C783        C784   1.414       .  A
C783        C788   1.404       .  A
C783        H790   1.079       .  S
C784        C785   1.397       .  A
C785        C786   1.396       .  A
C785        F792   1.357       .  S
C786        C787   1.412       .  A
C786        H791   1.082       .  S
C787        C788   1.401       .  A
C788        F789   1.357       .  S
C793        C794   1.404       .  A
C793        C798   1.400       .  A
C793        H800   1.085       .  S
C794       C1627   1.411       .  A
C795       C1626   1.411       .  A
C795        C796   1.401   1_655  A
C796        C797   1.403       .  A
C796        H801   1.085       .  S
C797       C1630   1.405       .  A
C798       C1629   1.405       .  A
C798        F799   1.357       .  S
C803        C804   1.403       .  A
C803        C808   1.396       .  A
C803        H810   1.085       .  S
C804        C805   1.419       .  A
C805       C1638   1.400   1_455  A
C805        F812   1.358       .  S
C806       C1637   1.400       .  A
C806        C807   1.396       .  A
C806        H811   1.083       .  S
C807       C1640   1.404       .  A
C808       C1639   1.404   1_455  A
C808        F809   1.358   1_455  S
C813        C814   1.401       .  A
C813        C818   1.407       .  A
C813        H820   1.083       .  S
C814        C815   1.419       .  A
C815        C816   1.400       .  A
C815        F822   1.358       .  S
C816        C817   1.399       .  A
C816        H821   1.083       .  S
C817        C818   1.421       .  A
C818        F819   1.357       .  S
C823       C1656   1.397   1_455  A
C823        C828   1.397       .  A
C823        H830   1.082       .  S
C824       C1655   1.397       .  A
C824        C825   1.414       .  A
C825        C826   1.393       .  A
C825        F832   1.358       .  S
C826       C1659   1.396       .  A
C826        H831   1.082       .  S
C827       C1658   1.396   1_455  A
C827        C828   1.414       .  A
C828        F829   1.359       .  S
O833        C848   1.279       .  A
O833       Al841   1.988       .  S
C834        O844   1.272       .  A
C834        O835   1.253       .  A
C834        C982   1.475       .  S
O835       Al837   1.866       .  S
O836        C838   1.278       .  A
O836       Al837   1.992       .  S
Al837       O845   1.996       .  S
Al837       O847   1.861       .  S
Al837       O846   1.755       .  S
C838        O851   1.252       .  A
C838       C1005   1.470       .  S
O839        C849   1.276       .  A
O839       Al841   1.992       .  S
O840        C853   1.278       .  A
O840       Al850   1.977       .  S
Al841       O854   1.868       .  S
Al841       O851   1.862       .  S
Al841       O846   1.763       .  S
O842        C849   1.244       .  A
O842       Al850   1.840       .  S
O843        C852   1.257       .  A
O843       Al850   1.870       .  S
O844       Al850   1.955       .  S
O845        C852   1.283       .  A
O846       Al850   1.757       .  S
O847        C848   1.257       .  A
C848        C995   1.480       .  S
C849       C1035   1.464       .  S
C852       C1025   1.499       .  S
C853        O854   1.257       .  A
C853       C1012   1.485       .  S
O855       C1286   1.258   1_545  A
O855       Al863   1.873       .  S
C856       O1074   1.253   1_554  A
C856        O857   1.270       .  A
C856        C992   1.478       .  S
O857      Al1067   1.949   1_554  S
O858        C860   1.247       .  A
O858       Al859   1.839       .  S
Al859      O1065   1.949       .  S
Al859       O867   1.849       .  S
Al859      O1285   1.969   1_545  S
Al859       O868   1.756       .  S
C860        O873   1.278       .  A
C860        C952   1.468       .  S
O861        C871   1.252       .  A
O861       Al863   1.854       .  S
O862        C875   1.256       .  A
O862       Al872   1.858       .  S
Al863       O876   1.990       .  S
Al863       O873   2.000       .  S
Al863       O868   1.763       .  S
O864        C871   1.276       .  A
O864       Al872   1.978       .  S
O865        C874   1.283       .  A
O865       Al872   2.002       .  S
O866       C1064   1.253       .  A
O866       Al872   1.871       .  S
O867        C874   1.256       .  A
O868       Al872   1.759       .  S
O869        C870   1.274       .  A
O869      Al1275   1.969       .  S
C870       O1271   1.258       .  A
C870        C965   1.479       .  S
C871        C972   1.461       .  S
C874        C945   1.498       .  S
C875        O876   1.279       .  A
C875        C985   1.487       .  S
O877        C892   1.257       .  A
O877       Al885   1.880       .  S
C878        O888   1.253       .  A
C878        O879   1.265       .  A
C878        C932   1.475       .  S
O879       Al881   1.941       .  S
O880        C882   1.249       .  A
O880       Al881   1.839       .  S
Al881       O889   1.852       .  S
Al881       O891   1.957       .  S
Al881       O890   1.763       .  S
C882        O895   1.280       .  A
C882       C1032   1.469       .  S
O883        C893   1.255       .  A
O883       Al885   1.853       .  S
O884        C897   1.254       .  A
O884       Al894   1.854       .  S
Al885       O898   1.974       .  S
Al885       O895   2.003       .  S
Al885       O890   1.771       .  S
O886        C893   1.276       .  A
O886       Al894   1.970       .  S
O887        C896   1.283       .  A
O887       Al894   1.996       .  S
O888       Al894   1.878       .  S
O889        C896   1.257       .  A
O890       Al894   1.752       .  S
O891        C892   1.271       .  A
C892        C975   1.478       .  S
C893        C962   1.471       .  S
C896       C1022   1.497       .  S
C897        O898   1.274       .  A
C897        C922   1.482       .  S
O899        C914   1.274       .  A
O899       Al907   1.970       .  S
C900        O910   1.268       .  A
C900       O1109   1.250       .  A
C900        C925   1.474       .  S
O901       C1108   1.250   1_554  A
O901       Al903   1.864       .  S
O902        C904   1.276       .  A
O902       Al903   1.971       .  S
Al903       O911   1.990       .  S
Al903       O913   1.864       .  S
Al903       O912   1.758       .  S
C904        O917   1.255       .  A
C904       C1015   1.462       .  S
O905        C915   1.277       .  A
O905       Al907   1.994       .  S
O906        C919   1.276       .  A
O906      Al1332   1.975   1_545  S
Al907       O920   1.882       .  S
Al907       O917   1.857       .  S
Al907       O912   1.765       .  S
O908        C915   1.248       .  A
O908       Al916   1.849       .  S
O909        C918   1.257       .  A
O909       Al916   1.858       .  S
O910      Al1124   1.946       .  S
O911        C918   1.283       .  A
O912       Al916   1.761       .  S
O913        C914   1.255       .  A
C914        C935   1.480       .  S
C915        C955   1.469       .  S
Al916      O1322   1.974       .  S
Al916      O1118   1.946   1_554  S
C918        C942   1.496       .  S
C919       O1336   1.260   1_545  A
C919       C1002   1.484       .  S
O920       C1335   1.260       .  A
C921        C922   1.413       .  A
C921        C926   1.393       .  A
C921        H928   1.085       .  S
C922        C923   1.403       .  A
C923        C924   1.403       .  A
C923        F930   1.358       .  S
C924        C925   1.412       .  A
C924        H929   1.086       .  S
C925        C926   1.394       .  A
C926        F927   1.357       .  S
C931        C932   1.397       .  A
C931        C936   1.397       .  A
C931        H938   1.083       .  S
C932        C933   1.411       .  A
C933        C934   1.399       .  A
C933        F940   1.357       .  S
C934        C935   1.399       .  A
C934        H939   1.083       .  S
C935        C936   1.416       .  A
C936        F937   1.358       .  S
C941       C1358   1.418   1_545  A
C941       C1154   1.407   1_554  A
C941        H948   1.083       .  S
C942       C1357   1.418       .  A
C942        C943   1.400   1_554  A
C943       C1152   1.399       .  A
C943        F950   1.357       .  S
C944       C1151   1.399       .  A
C944       C1361   1.416       .  A
C944        H949   1.083       .  S
C945       C1360   1.416   1_545  A
C945        C946   1.404       .  A
C946       C1149   1.407       .  A
C946        F947   1.357       .  S
C951        C956   1.398       .  A
C951        H958   1.082       .  S
C952       C1161   1.413       .  A
C953       C1160   1.413   1_554  A
C953       C1370   1.395       .  A
C953        F960   1.359       .  S
C954       C1369   1.395       .  A
C954        H959   1.079       .  S
C955       C1164   1.413   1_554  A
C956       C1163   1.413       .  A
C956        F957   1.358       .  S
C961        C962   1.409   1_455  A
C961        H968   1.083       .  S
C963        C964   1.398       .  A
C963        F970   1.357       .  S
C964        C965   1.413       .  A
C964        H969   1.083       .  S
C965        C966   1.402       .  A
C966        F967   1.357       .  S
C971        C972   1.401       .  A
C971        H978   1.077       .  S
C972        C973   1.403       .  A
C973        F980   1.358       .  S
C974        C975   1.405       .  A
C974        H979   1.083       .  S
C975        C976   1.411       .  A
C976        F977   1.358       .  S
C981        C982   1.411       .  A
C981        C986   1.402       .  A
C981        H988   1.083       .  S
C982        C983   1.396       .  A
C983        C984   1.399       .  A
C983        F990   1.357       .  S
C984        C985   1.416       .  A
C984        H989   1.082       .  S
C985        C986   1.402       .  A
C986        F987   1.357       .  S
C991        C992   1.414       .  A
C991        C996   1.404       .  A
C991        H998   1.079   1_554  S
C992        C993   1.397       .  A
C993        C994   1.396       .  A
C993       F1000   1.357       .  S
C994        C995   1.412       .  A
C994        H999   1.082       .  S
C995        C996   1.401       .  A
C996        F997   1.357       .  S
C1001      C1002   1.404       .  A
C1001      C1006   1.400   1_655  A
C1001      H1008   1.085       .  S
C1003      C1004   1.401       .  A
C1003      F1426   1.358       .  S
C1004      C1005   1.403       .  A
C1004      H1009   1.085       .  S
C1006      F1007   1.357       .  S
F1010      C1419   1.358       .  S
C1011      C1012   1.403       .  A
C1011      C1016   1.396       .  A
C1011      H1018   1.085       .  S
C1012      C1013   1.419       .  A
C1013      F1020   1.358       .  S
C1014      C1015   1.396       .  A
C1014      H1019   1.083       .  S
C1016      F1017   1.358       .  S
C1021      C1022   1.401       .  A
C1021      C1026   1.407       .  A
C1021      H1028   1.083       .  S
C1022      C1023   1.419       .  A
C1023      C1024   1.400       .  A
C1023      F1030   1.358       .  S
C1024      C1025   1.399       .  A
C1024      H1029   1.083       .  S
C1025      C1026   1.421       .  A
C1026      F1027   1.357       .  S
C1031      C1036   1.397       .  A
C1031      H1038   1.082       .  S
C1032      C1033   1.414       .  A
C1033      C1034   1.393       .  A
C1033      F1040   1.358       .  S
C1034      H1039   1.082       .  S
C1035      C1036   1.414       .  A
C1036      F1037   1.359       .  S
O1041      C1056   1.279       .  A
O1041     Al1049   1.988       .  S
C1042      O1052   1.272       .  A
C1042      O1043   1.253       .  A
C1042      C1190   1.475       .  S
O1043     Al1045   1.866       .  S
O1044      C1046   1.278       .  A
O1044     Al1045   1.992       .  S
Al1045     O1053   1.996       .  S
Al1045     O1055   1.861       .  S
Al1045     O1054   1.755       .  S
C1046      O1059   1.252       .  A
C1046      C1213   1.470       .  S
O1047      C1057   1.276       .  A
O1047     Al1049   1.992       .  S
O1048      C1061   1.278       .  A
O1048     Al1058   1.977       .  S
Al1049     O1062   1.868       .  S
Al1049     O1059   1.862       .  S
Al1049     O1054   1.763       .  S
O1050      C1057   1.244       .  A
O1050     Al1058   1.840       .  S
O1051      C1060   1.257       .  A
O1051     Al1058   1.870       .  S
O1052     Al1058   1.956       .  S
O1053      C1060   1.283       .  A
O1054     Al1058   1.757       .  S
O1055      C1056   1.257       .  A
C1056      C1203   1.480       .  S
C1057      C1243   1.464       .  S
C1060      C1233   1.499       .  S
C1061      O1062   1.257       .  A
C1061      C1220   1.485       .  S
O1063      C1494   1.258   1_545  A
O1063     Al1071   1.873       .  S
C1064      O1065   1.270       .  A
C1064      C1200   1.478       .  S
O1066      C1068   1.247       .  A
O1066     Al1067   1.839       .  S
Al1067     O1075   1.849       .  S
Al1067     O1493   1.969   1_545  S
Al1067     O1076   1.756       .  S
C1068      O1081   1.278       .  A
C1068      C1160   1.468       .  S
O1069      C1079   1.252       .  A
O1069     Al1071   1.854       .  S
O1070      C1083   1.256       .  A
O1070     Al1080   1.859       .  S
Al1071     O1084   1.990       .  S
Al1071     O1081   2.000       .  S
Al1071     O1076   1.763       .  S
O1072      C1079   1.276       .  A
O1072     Al1080   1.977       .  S
O1073      C1082   1.283       .  A
O1073     Al1080   2.002       .  S
O1074     Al1080   1.871       .  S
O1075      C1082   1.256       .  A
O1076     Al1080   1.760       .  S
O1077      C1078   1.274       .  A
O1077     Al1483   1.969       .  S
C1078      O1479   1.258       .  A
C1078      C1173   1.479       .  S
C1079      C1180   1.461       .  S
C1082      C1153   1.498       .  S
C1083      O1084   1.279       .  A
C1083      C1193   1.487       .  S
O1085      C1100   1.257       .  A
O1085     Al1093   1.880       .  S
C1086      O1096   1.253       .  A
C1086      O1087   1.265       .  A
C1086      C1140   1.475       .  S
O1087     Al1089   1.940       .  S
O1088      C1090   1.249       .  A
O1088     Al1089   1.839       .  S
Al1089     O1097   1.852       .  S
Al1089     O1099   1.957       .  S
Al1089     O1098   1.763       .  S
C1090      O1103   1.280       .  A
C1090      C1240   1.469       .  S
O1091      C1101   1.255       .  A
O1091     Al1093   1.853       .  S
O1092      C1105   1.254       .  A
O1092     Al1102   1.854       .  S
Al1093     O1106   1.974       .  S
Al1093     O1103   2.002       .  S
Al1093     O1098   1.771       .  S
O1094      C1101   1.276       .  A
O1094     Al1102   1.970       .  S
O1095      C1104   1.284       .  A
O1095     Al1102   1.996       .  S
O1096     Al1102   1.878       .  S
O1097      C1104   1.257       .  A
O1098     Al1102   1.752       .  S
O1099      C1100   1.271       .  A
C1100      C1183   1.478       .  S
C1101      C1170   1.471       .  S
C1104      C1230   1.497       .  S
C1105      O1106   1.274       .  A
C1105      C1130   1.482       .  S
O1107      C1122   1.274       .  A
O1107     Al1115   1.970       .  S
C1108      O1118   1.268       .  A
C1108      C1133   1.474       .  S
O1109     Al1111   1.864       .  S
O1110      C1112   1.276       .  A
O1110     Al1111   1.971       .  S
Al1111     O1119   1.990       .  S
Al1111     O1121   1.864       .  S
Al1111     O1120   1.758       .  S
C1112      O1125   1.255       .  A
C1112      C1223   1.462       .  S
O1113      C1123   1.277       .  A
O1113     Al1115   1.994       .  S
O1114      C1127   1.276       .  A
O1114     Al1540   1.974   1_545  S
Al1115     O1128   1.882       .  S
Al1115     O1125   1.857       .  S
Al1115     O1120   1.765       .  S
O1116      C1123   1.248       .  A
O1116     Al1124   1.849       .  S
O1117      C1126   1.257       .  A
O1117     Al1124   1.858       .  S
O1119      C1126   1.283       .  A
O1120     Al1124   1.761       .  S
O1121      C1122   1.255       .  A
C1122      C1143   1.480       .  S
C1123      C1163   1.469       .  S
Al1124     O1530   1.975       .  S
C1126      C1150   1.496       .  S
C1127      O1544   1.260   1_545  A
C1127      C1210   1.484       .  S
O1128      C1543   1.260       .  A
C1129      C1130   1.413       .  A
C1129      C1134   1.393       .  A
C1129      H1136   1.085       .  S
C1130      C1131   1.403       .  A
C1131      C1132   1.403       .  A
C1131      F1138   1.358       .  S
C1132      C1133   1.412       .  A
C1132      H1137   1.086       .  S
C1133      C1134   1.394       .  A
C1134      F1135   1.357       .  S
C1139      C1140   1.397       .  A
C1139      C1144   1.397       .  A
C1139      H1146   1.083       .  S
C1140      C1141   1.411       .  A
C1141      C1142   1.399       .  A
C1141      F1148   1.357       .  S
C1142      C1143   1.399       .  A
C1142      H1147   1.083       .  S
C1143      C1144   1.416       .  A
C1144      F1145   1.358       .  S
C1149      C1566   1.418   1_545  A
C1149      H1156   1.083       .  S
C1150      C1565   1.418       .  A
C1150      C1151   1.400       .  A
C1151      F1158   1.357       .  S
C1152      C1569   1.416       .  A
C1152      H1157   1.083       .  S
C1153      C1568   1.416   1_545  A
C1153      C1154   1.404       .  A
C1154      F1155   1.357       .  S
C1159      C1164   1.398       .  A
C1159      H1166   1.082       .  S
C1161      C1578   1.395       .  A
C1161      F1168   1.359       .  S
C1162      C1577   1.395       .  A
C1162      H1167   1.079       .  S
C1164      F1165   1.358       .  S
C1169      C1170   1.409   1_455  A
C1169      H1176   1.083       .  S
C1171      C1172   1.398       .  A
C1171      F1178   1.357       .  S
C1172      C1173   1.413       .  A
C1172      H1177   1.083       .  S
C1173      C1174   1.402       .  A
C1174      F1175   1.357       .  S
C1179      C1180   1.401       .  A
C1179      H1186   1.077       .  S
C1180      C1181   1.402       .  A
C1181      F1188   1.358       .  S
C1182      C1183   1.405       .  A
C1182      H1187   1.083       .  S
C1183      C1184   1.411       .  A
C1184      F1185   1.358       .  S
C1189      C1190   1.411       .  A
C1189      C1194   1.402       .  A
C1189      H1196   1.083       .  S
C1190      C1191   1.396       .  A
C1191      C1192   1.399       .  A
C1191      F1198   1.357       .  S
C1192      C1193   1.416       .  A
C1192      H1197   1.082       .  S
C1193      C1194   1.402       .  A
C1194      F1195   1.357       .  S
C1199      C1200   1.414       .  A
C1199      C1204   1.404       .  A
C1199      H1206   1.079       .  S
C1200      C1201   1.397       .  A
C1201      C1202   1.396       .  A
C1201      F1208   1.357       .  S
C1202      C1203   1.412       .  A
C1202      H1207   1.082       .  S
C1203      C1204   1.401       .  A
C1204      F1205   1.357       .  S
C1209      C1210   1.404       .  A
C1209      C1214   1.400   1_655  A
C1209      H1216   1.085       .  S
C1211      C1212   1.401       .  A
C1211      F1634   1.358       .  S
C1212      C1213   1.403       .  A
C1212      H1217   1.085       .  S
C1214      F1215   1.357       .  S
F1218      C1627   1.358       .  S
C1219      C1220   1.403       .  A
C1219      C1224   1.396       .  A
C1219      H1226   1.085       .  S
C1220      C1221   1.419       .  A
C1221      F1228   1.358       .  S
C1222      C1223   1.396       .  A
C1222      H1227   1.083       .  S
C1224      F1225   1.358       .  S
C1229      C1230   1.401       .  A
C1229      C1234   1.407       .  A
C1229      H1236   1.083       .  S
C1230      C1231   1.419       .  A
C1231      C1232   1.400       .  A
C1231      F1238   1.358       .  S
C1232      C1233   1.399       .  A
C1232      H1237   1.083       .  S
C1233      C1234   1.421       .  A
C1234      F1235   1.357       .  S
C1239      C1244   1.397       .  A
C1239      H1246   1.082       .  S
C1240      C1241   1.414       .  A
C1241      C1242   1.393       .  A
C1241      F1248   1.358       .  S
C1242      H1247   1.082       .  S
C1243      C1244   1.414       .  A
C1244      F1245   1.359       .  S
O1249      C1264   1.279       .  A
O1249     Al1257   1.988       .  S
C1250      O1260   1.272       .  A
C1250      O1251   1.253       .  A
C1250      C1398   1.475       .  S
O1251     Al1253   1.866       .  S
O1252      C1254   1.278       .  A
O1252     Al1253   1.992       .  S
Al1253     O1261   1.996       .  S
Al1253     O1263   1.861       .  S
Al1253     O1262   1.755       .  S
C1254      O1267   1.252       .  A
C1254      C1421   1.470       .  S
O1255      C1265   1.276       .  A
O1255     Al1257   1.992       .  S
O1256      C1269   1.278       .  A
O1256     Al1266   1.977       .  S
Al1257     O1270   1.868       .  S
Al1257     O1267   1.862       .  S
Al1257     O1262   1.763       .  S
O1258      C1265   1.244       .  A
O1258     Al1266   1.840       .  S
O1259      C1268   1.257       .  A
O1259     Al1266   1.870       .  S
O1260     Al1266   1.956       .  S
O1261      C1268   1.283       .  A
O1262     Al1266   1.757       .  S
O1263      C1264   1.257       .  A
C1264      C1411   1.480       .  S
C1265      C1451   1.464       .  S
C1268      C1441   1.499       .  S
C1269      O1270   1.257       .  A
C1269      C1428   1.485       .  S
O1271     Al1279   1.873       .  S
C1272      O1490   1.253   1_554  A
C1272      O1273   1.270       .  A
C1272      C1408   1.478       .  S
O1273     Al1483   1.949   1_554  S
O1274      C1276   1.247       .  A
O1274     Al1275   1.839       .  S
Al1275     O1481   1.949       .  S
Al1275     O1283   1.849       .  S
Al1275     O1284   1.756       .  S
C1276      O1289   1.278       .  A
C1276      C1368   1.468       .  S
O1277      C1287   1.252       .  A
O1277     Al1279   1.854       .  S
O1278      C1291   1.256       .  A
O1278     Al1288   1.859       .  S
Al1279     O1292   1.990       .  S
Al1279     O1289   2.000       .  S
Al1279     O1284   1.763       .  S
O1280      C1287   1.276       .  A
O1280     Al1288   1.977       .  S
O1281      C1290   1.283       .  A
O1281     Al1288   2.002       .  S
O1282      C1480   1.253       .  A
O1282     Al1288   1.871       .  S
O1283      C1290   1.256       .  A
O1284     Al1288   1.760       .  S
O1285      C1286   1.274       .  A
C1286      C1381   1.479       .  S
C1287      C1388   1.461       .  S
C1290      C1361   1.498       .  S
C1291      O1292   1.279       .  A
C1291      C1401   1.487       .  S
O1293      C1308   1.257       .  A
O1293     Al1301   1.880       .  S
C1294      O1304   1.253       .  A
C1294      O1295   1.265       .  A
C1294      C1348   1.475       .  S
O1295     Al1297   1.940       .  S
O1296      C1298   1.249       .  A
O1296     Al1297   1.839       .  S
Al1297     O1305   1.852       .  S
Al1297     O1307   1.957       .  S
Al1297     O1306   1.763       .  S
C1298      O1311   1.280       .  A
C1298      C1448   1.469       .  S
O1299      C1309   1.255       .  A
O1299     Al1301   1.853       .  S
O1300      C1313   1.254       .  A
O1300     Al1310   1.854       .  S
Al1301     O1314   1.974       .  S
Al1301     O1311   2.002       .  S
Al1301     O1306   1.771       .  S
O1302      C1309   1.276       .  A
O1302     Al1310   1.970       .  S
O1303      C1312   1.284       .  A
O1303     Al1310   1.996       .  S
O1304     Al1310   1.878       .  S
O1305      C1312   1.257       .  A
O1306     Al1310   1.752       .  S
O1307      C1308   1.271       .  A
C1308      C1391   1.478       .  S
C1309      C1378   1.471       .  S
C1312      C1438   1.497       .  S
C1313      O1314   1.274       .  A
C1313      C1338   1.482       .  S
O1315      C1330   1.274       .  A
O1315     Al1323   1.970       .  S
C1316      O1326   1.268       .  A
C1316      O1525   1.250       .  A
C1316      C1341   1.474       .  S
O1317      C1524   1.250   1_554  A
O1317     Al1319   1.864       .  S
O1318      C1320   1.276       .  A
O1318     Al1319   1.971       .  S
Al1319     O1327   1.990       .  S
Al1319     O1329   1.864       .  S
Al1319     O1328   1.758       .  S
C1320      O1333   1.255       .  A
C1320      C1431   1.462       .  S
O1321      C1331   1.277       .  A
O1321     Al1323   1.994       .  S
O1322      C1335   1.276       .  A
Al1323     O1336   1.882       .  S
Al1323     O1333   1.857       .  S
Al1323     O1328   1.765       .  S
O1324      C1331   1.248       .  A
O1324     Al1332   1.850       .  S
O1325      C1334   1.257       .  A
O1325     Al1332   1.858       .  S
O1326     Al1540   1.946       .  S
O1327      C1334   1.283       .  A
O1328     Al1332   1.761       .  S
O1329      C1330   1.255       .  A
C1330      C1351   1.480       .  S
C1331      C1371   1.469       .  S
Al1332     O1534   1.946   1_554  S
C1334      C1358   1.496       .  S
C1335      C1418   1.484       .  S
C1337      C1338   1.413       .  A
C1337      C1342   1.393       .  A
C1337      H1344   1.085       .  S
C1338      C1339   1.403       .  A
C1339      C1340   1.403       .  A
C1339      F1346   1.358       .  S
C1340      C1341   1.412       .  A
C1340      H1345   1.086       .  S
C1341      C1342   1.394       .  A
C1342      F1343   1.357       .  S
C1347      C1348   1.397       .  A
C1347      C1352   1.397       .  A
C1347      H1354   1.083       .  S
C1348      C1349   1.411       .  A
C1349      C1350   1.399       .  A
C1349      F1356   1.357       .  S
C1350      C1351   1.399       .  A
C1350      H1355   1.083       .  S
C1351      C1352   1.416       .  A
C1352      F1353   1.358       .  S
C1357      C1570   1.407   1_554  A
C1357      H1364   1.083       .  S
C1358      C1359   1.400   1_554  A
C1359      C1568   1.399       .  A
C1359      F1366   1.357       .  S
C1360      C1567   1.399       .  A
C1360      H1365   1.083       .  S
C1361      C1362   1.404       .  A
C1362      C1565   1.407       .  A
C1362      F1363   1.357       .  S
C1367      C1372   1.398       .  A
C1367      H1374   1.082       .  S
C1368      C1577   1.413       .  A
C1369      C1576   1.413   1_554  A
C1369      F1376   1.359       .  S
C1370      H1375   1.079       .  S
C1371      C1580   1.413   1_554  A
C1372      C1579   1.413       .  A
C1372      F1373   1.358       .  S
C1377      C1378   1.409   1_455  A
C1377      H1384   1.083       .  S
C1379      C1380   1.398       .  A
C1379      F1386   1.357       .  S
C1380      C1381   1.412       .  A
C1380      H1385   1.083       .  S
C1381      C1382   1.402       .  A
C1382      F1383   1.357       .  S
C1387      C1388   1.401       .  A
C1387      H1394   1.077       .  S
C1388      C1389   1.402       .  A
C1389      F1396   1.358       .  S
C1390      C1391   1.405       .  A
C1390      H1395   1.083       .  S
C1391      C1392   1.411       .  A
C1392      F1393   1.358       .  S
C1397      C1398   1.411       .  A
C1397      C1402   1.402       .  A
C1397      H1404   1.083       .  S
C1398      C1399   1.396       .  A
C1399      C1400   1.399       .  A
C1399      F1406   1.357       .  S
C1400      C1401   1.416       .  A
C1400      H1405   1.082       .  S
C1401      C1402   1.402       .  A
C1402      F1403   1.357       .  S
C1407      C1408   1.414       .  A
C1407      C1412   1.404       .  A
C1407      H1414   1.079   1_554  S
C1408      C1409   1.397       .  A
C1409      C1410   1.396       .  A
C1409      F1416   1.357       .  S
C1410      C1411   1.412       .  A
C1410      H1415   1.082       .  S
C1411      C1412   1.401       .  A
C1412      F1413   1.357       .  S
C1417      C1418   1.404       .  A
C1417      C1422   1.400   1_655  A
C1417      H1424   1.085       .  S
C1419      C1420   1.401       .  A
C1420      C1421   1.403       .  A
C1420      H1425   1.085       .  S
C1422      F1423   1.357       .  S
C1427      C1428   1.403       .  A
C1427      C1432   1.396       .  A
C1427      H1434   1.085       .  S
C1428      C1429   1.419       .  A
C1429      F1436   1.358       .  S
C1430      C1431   1.396       .  A
C1430      H1435   1.083       .  S
C1432      F1433   1.358       .  S
C1437      C1438   1.401       .  A
C1437      C1442   1.407       .  A
C1437      H1444   1.083       .  S
C1438      C1439   1.419       .  A
C1439      C1440   1.400       .  A
C1439      F1446   1.358       .  S
C1440      C1441   1.399       .  A
C1440      H1445   1.083       .  S
C1441      C1442   1.421       .  A
C1442      F1443   1.357       .  S
C1447      C1452   1.397       .  A
C1447      H1454   1.082       .  S
C1448      C1449   1.414       .  A
C1449      C1450   1.393       .  A
C1449      F1456   1.358       .  S
C1450      H1455   1.082       .  S
C1451      C1452   1.414       .  A
C1452      F1453   1.359       .  S
O1457      C1472   1.279       .  A
O1457     Al1465   1.988       .  S
C1458      O1468   1.272       .  A
C1458      O1459   1.253       .  A
C1458      C1606   1.475       .  S
O1459     Al1461   1.866       .  S
O1460      C1462   1.278       .  A
O1460     Al1461   1.992       .  S
Al1461     O1469   1.996       .  S
Al1461     O1471   1.861       .  S
Al1461     O1470   1.755       .  S
C1462      O1475   1.252       .  A
C1462      C1629   1.470       .  S
O1463      C1473   1.276       .  A
O1463     Al1465   1.992       .  S
O1464      C1477   1.278       .  A
O1464     Al1474   1.977       .  S
Al1465     O1478   1.868       .  S
Al1465     O1475   1.862       .  S
Al1465     O1470   1.763       .  S
O1466      C1473   1.244       .  A
O1466     Al1474   1.840       .  S
O1467      C1476   1.257       .  A
O1467     Al1474   1.870       .  S
O1468     Al1474   1.955       .  S
O1469      C1476   1.283       .  A
O1470     Al1474   1.758       .  S
O1471      C1472   1.257       .  A
C1472      C1619   1.480       .  S
C1473      C1659   1.464       .  S
C1476      C1649   1.499       .  S
C1477      O1478   1.257       .  A
C1477      C1636   1.485       .  S
O1479     Al1487   1.873       .  S
C1480      O1481   1.270       .  A
C1480      C1616   1.478       .  S
O1482      C1484   1.247       .  A
O1482     Al1483   1.839       .  S
Al1483     O1491   1.849       .  S
Al1483     O1492   1.756       .  S
C1484      O1497   1.278       .  A
C1484      C1576   1.468       .  S
O1485      C1495   1.252       .  A
O1485     Al1487   1.854       .  S
O1486      C1499   1.256       .  A
O1486     Al1496   1.858       .  S
Al1487     O1500   1.990       .  S
Al1487     O1497   2.000       .  S
Al1487     O1492   1.763       .  S
O1488      C1495   1.276       .  A
O1488     Al1496   1.978       .  S
O1489      C1498   1.283       .  A
O1489     Al1496   2.002       .  S
O1490     Al1496   1.871       .  S
O1491      C1498   1.256       .  A
O1492     Al1496   1.759       .  S
O1493      C1494   1.274       .  A
C1494      C1589   1.479       .  S
C1495      C1596   1.461       .  S
C1498      C1569   1.498       .  S
C1499      O1500   1.279       .  A
C1499      C1609   1.487       .  S
O1501      C1516   1.257       .  A
O1501     Al1509   1.880       .  S
C1502      O1512   1.253       .  A
C1502      O1503   1.265       .  A
C1502      C1556   1.475       .  S
O1503     Al1505   1.941       .  S
O1504      C1506   1.249       .  A
O1504     Al1505   1.839       .  S
Al1505     O1513   1.852       .  S
Al1505     O1515   1.957       .  S
Al1505     O1514   1.763       .  S
C1506      O1519   1.280       .  A
C1506      C1656   1.469       .  S
O1507      C1517   1.255       .  A
O1507     Al1509   1.853       .  S
O1508      C1521   1.254       .  A
O1508     Al1518   1.854       .  S
Al1509     O1522   1.974       .  S
Al1509     O1519   2.003       .  S
Al1509     O1514   1.771       .  S
O1510      C1517   1.276       .  A
O1510     Al1518   1.970       .  S
O1511      C1520   1.283       .  A
O1511     Al1518   1.996       .  S
O1512     Al1518   1.878       .  S
O1513      C1520   1.257       .  A
O1514     Al1518   1.752       .  S
O1515      C1516   1.271       .  A
C1516      C1599   1.478       .  S
C1517      C1586   1.471       .  S
C1520      C1646   1.497       .  S
C1521      O1522   1.274       .  A
C1521      C1546   1.482       .  S
O1523      C1538   1.274       .  A
O1523     Al1531   1.970       .  S
C1524      O1534   1.268       .  A
C1524      C1549   1.474       .  S
O1525     Al1527   1.864       .  S
O1526      C1528   1.276       .  A
O1526     Al1527   1.971       .  S
Al1527     O1535   1.990       .  S
Al1527     O1537   1.864       .  S
Al1527     O1536   1.758       .  S
C1528      O1541   1.255       .  A
C1528      C1639   1.462       .  S
O1529      C1539   1.277       .  A
O1529     Al1531   1.994       .  S
O1530      C1543   1.276       .  A
Al1531     O1544   1.882       .  S
Al1531     O1541   1.857       .  S
Al1531     O1536   1.765       .  S
O1532      C1539   1.248       .  A
O1532     Al1540   1.849       .  S
O1533      C1542   1.257       .  A
O1533     Al1540   1.858       .  S
O1535      C1542   1.283       .  A
O1536     Al1540   1.761       .  S
O1537      C1538   1.255       .  A
C1538      C1559   1.480       .  S
C1539      C1579   1.469       .  S
C1542      C1566   1.496       .  S
C1543      C1626   1.484       .  S
C1545      C1546   1.413       .  A
C1545      C1550   1.393       .  A
C1545      H1552   1.085       .  S
C1546      C1547   1.403       .  A
C1547      C1548   1.403       .  A
C1547      F1554   1.358       .  S
C1548      C1549   1.412       .  A
C1548      H1553   1.086       .  S
C1549      C1550   1.394       .  A
C1550      F1551   1.357       .  S
C1555      C1556   1.397       .  A
C1555      C1560   1.397       .  A
C1555      H1562   1.083       .  S
C1556      C1557   1.411       .  A
C1557      C1558   1.399       .  A
C1557      F1564   1.357       .  S
C1558      C1559   1.399       .  A
C1558      H1563   1.083       .  S
C1559      C1560   1.416       .  A
C1560      F1561   1.358       .  S
C1565      H1572   1.083       .  S
C1566      C1567   1.400       .  A
C1567      F1574   1.357       .  S
C1568      H1573   1.083       .  S
C1569      C1570   1.404       .  A
C1570      F1571   1.357       .  S
C1575      C1580   1.398       .  A
C1575      H1582   1.082       .  S
C1577      F1584   1.359       .  S
C1578      H1583   1.079       .  S
C1580      F1581   1.358       .  S
C1585      C1586   1.409   1_455  A
C1585      H1592   1.083       .  S
C1587      C1588   1.398       .  A
C1587      F1594   1.357       .  S
C1588      C1589   1.413       .  A
C1588      H1593   1.083       .  S
C1589      C1590   1.402       .  A
C1590      F1591   1.357       .  S
C1595      C1596   1.401       .  A
C1595      H1602   1.077       .  S
C1596      C1597   1.403       .  A
C1597      F1604   1.358       .  S
C1598      C1599   1.405       .  A
C1598      H1603   1.083       .  S
C1599      C1600   1.411       .  A
C1600      F1601   1.358       .  S
C1605      C1606   1.411       .  A
C1605      C1610   1.402       .  A
C1605      H1612   1.083       .  S
C1606      C1607   1.396       .  A
C1607      C1608   1.399       .  A
C1607      F1614   1.357       .  S
C1608      C1609   1.416       .  A
C1608      H1613   1.082       .  S
C1609      C1610   1.402       .  A
C1610      F1611   1.357       .  S
C1615      C1616   1.414       .  A
C1615      C1620   1.404       .  A
C1615      H1622   1.079       .  S
C1616      C1617   1.397       .  A
C1617      C1618   1.396       .  A
C1617      F1624   1.357       .  S
C1618      C1619   1.412       .  A
C1618      H1623   1.082       .  S
C1619      C1620   1.401       .  A
C1620      F1621   1.357       .  S
C1625      C1626   1.404       .  A
C1625      C1630   1.400   1_655  A
C1625      H1632   1.085       .  S
C1627      C1628   1.401       .  A
C1628      C1629   1.403       .  A
C1628      H1633   1.085       .  S
C1630      F1631   1.357       .  S
C1635      C1636   1.403       .  A
C1635      C1640   1.396       .  A
C1635      H1642   1.085       .  S
C1636      C1637   1.419       .  A
C1637      F1644   1.358       .  S
C1638      C1639   1.396       .  A
C1638      H1643   1.083       .  S
C1640      F1641   1.358       .  S
C1645      C1646   1.401       .  A
C1645      C1650   1.407       .  A
C1645      H1652   1.083       .  S
C1646      C1647   1.419       .  A
C1647      C1648   1.400       .  A
C1647      F1654   1.358       .  S
C1648      C1649   1.399       .  A
C1648      H1653   1.083       .  S
C1649      C1650   1.421       .  A
C1650      F1651   1.357       .  S
C1655      C1660   1.397       .  A
C1655      H1662   1.082       .  S
C1656      C1657   1.414       .  A
C1657      C1658   1.393       .  A
C1657      F1664   1.358       .  S
C1658      H1663   1.082       .  S
C1659      C1660   1.414       .  A
C1660      F1661   1.359       .  S
