geometry optimzed in LAMMPS
_audit_creation_date              2020-12-01 
_audit_creation_method            'lammps2cif' 
_symmetry_space_group_name_H-M    'P1' 
_symmetry_Int_Tables_number       1 
_symmetry_cell_setting            triclinic 
loop_ 
_symmetry_equiv_pos_as_xyz 
  x,y,z 
_cell_length_a                    59.66831575 
_cell_length_b                    71.70771710381312 
_cell_length_c                    49.18927064212727 
_cell_angle_alpha                 90.09380122520145 
_cell_angle_beta                  90.00970617015048 
_cell_angle_gamma                 90.02971522890518 
loop_ 
_atom_site_label 
_atom_site_type_symbol 
_atom_site_fract_x 
_atom_site_fract_y 
_atom_site_fract_z 
_atom_site_charge 
Zr1        Zr  0.35079434  0.51913438  0.63574311     2.17500
O2          O  0.36843673  0.53825690  0.67087851    -0.51600
O3          O  0.32796474  0.51140325  0.67586242    -0.74800
O4          O  0.33736047  0.55122487  0.63619045    -0.81500
O5          O  0.39823570  0.48319593  0.64113930    -0.83300
O6          O  0.31183809  0.55534611  0.60250820    -0.78900
O7          O  0.38669307  0.51152913  0.65577198    -0.90600
O8          O  0.30297679  0.48890311  0.66461713    -0.76500
O9          O  0.31391094  0.51373247  0.61943693    -0.86000
O10         O  0.34609689  0.48618615  0.63524396    -0.85700
O11         O  0.35097179  0.53298930  0.59101708    -0.72400
O12         O  0.37913636  0.50752266  0.60525648    -0.84600
Zr13       Zr  0.33530454  0.48164637  0.54309541     2.26400
Zr14       Zr  0.31384514  0.52719549  0.57494649     2.06300
Zr15       Zr  0.37363135  0.47460774  0.60424905     2.10000
Zr16       Zr  0.30954102  0.48065355  0.61792441     1.78800
O17         O  0.41208115  0.46846158  0.59039453    -0.93400
O18         O  0.26952074  0.48694575  0.62138475    -0.41200
O19         O  0.33683841  0.46804408  0.58757139    -0.77800
O20         O  0.30754918  0.49409151  0.57368184    -0.96500
O21         O  0.34071818  0.51464992  0.54377011    -0.89800
O22         O  0.37235531  0.48703952  0.55934839    -0.92700
C23         C  0.31165272  0.50032860  0.68158496     1.01100
C24         C  0.40044866  0.49778799  0.65589639     1.14000
C25         C  0.32326085  0.56118431  0.62292158     1.04800
O26         O  0.27498484  0.53503658  0.58471406    -0.94800
O27         O  0.29060428  0.52010135  0.53644819    -0.90600
O28         O  0.30473580  0.49432737  0.51565783    -0.83700
C29         C  0.29044660  0.50771504  0.51771599     1.11400
O30         O  0.40210778  0.54491476  0.57573338    -0.96800
Zr31       Zr  0.37771285  0.51982002  0.55996175     1.88900
O32         O  0.35798275  0.48766526  0.50285183    -0.73400
O33         O  0.31960469  0.55299844  0.54355053    -0.52700
O34         O  0.37377578  0.54827272  0.53333247    -0.97400
O35         O  0.41717407  0.51101540  0.55850049    -0.54600
O36         O  0.38286153  0.51069336  0.51261033    -0.74000
C37         C  0.37387559  0.49887105  0.49622356     0.98400
O38         O  0.30970709  0.45902095  0.52217972    -0.62800
O39         O  0.37223592  0.44861206  0.63603046    -0.57600
O40         O  0.35213636  0.45034886  0.53971301    -0.94300
O41         O  0.37437824  0.44688667  0.57678265    -0.92700
O42         O  0.31674073  0.45140926  0.64149717    -0.93000
O43         O  0.28522241  0.45585504  0.60132150    -0.91800
C44         C  0.36551673  0.44078756  0.55479329     1.17200
H45         H  0.34813029  0.48086560  0.65310592     0.33200
H46         H  0.29269534  0.49140940  0.56692895     0.44000
H47         H  0.38328645  0.48091765  0.54795619     0.37600
H48         H  0.35418154  0.54615031  0.59157936     0.34000
H49         H  0.26470011  0.48071110  0.63835848     0.25800
H50         H  0.30564561  0.56040604  0.54474919     0.31800
H51         H  0.36284654  0.54513415  0.51888471     0.37700
H52         H  0.30921116  0.45267021  0.65933502     0.32100
H53         H  0.36188896  0.43947037  0.62763787     0.31000
H54         H  0.41493366  0.45539402  0.59587396     0.32700
H55         H  0.41773616  0.49944374  0.54753256     0.31700
H56         H  0.28569690  0.45703041  0.58127954     0.35700
H57         H  0.31309070  0.44664993  0.53004957     0.28400
H58         H  0.35608065  0.54405930  0.68134094     0.32600
H59         H  0.41206924  0.54785992  0.56021761     0.35500
H60         H  0.38720388  0.44272025  0.63469173     0.28100
H61         H  0.29476719  0.46195518  0.52982712     0.40900
H62         H  0.26708428  0.52289594  0.58506970     0.31000
H63         H  0.26854808  0.50043036  0.62555807     0.38600
H64         H  0.42071869  0.50694939  0.57724462     0.30500
H65         H  0.33109735  0.56094608  0.55232197     0.30500
H66         H  0.37579246  0.54869123  0.66121964     0.30800
Zr67       Zr  0.35121493  0.73747160  0.65712434     2.17500
O68         O  0.37271945  0.71514111  0.63024889    -0.51600
O69         O  0.33012269  0.74255745  0.61517687    -0.74800
O70         O  0.33449947  0.70650147  0.65618016    -0.81500
O71         O  0.39926046  0.77242485  0.64919697    -0.83300
O72         O  0.30964681  0.70401370  0.69090354    -0.78900
O73         O  0.38560801  0.74489070  0.63345652    -0.90600
O74         O  0.30460012  0.76532629  0.62315656    -0.76500
O75         O  0.31385102  0.74460803  0.67014082    -0.86000
O76         O  0.34806337  0.77050875  0.65435448    -0.85700
O77         O  0.34850579  0.72557824  0.70285623    -0.72400
O78         O  0.37876443  0.74936374  0.68841027    -0.84600
Zr79       Zr  0.33399966  0.77953101  0.74453133     2.26400
Zr80       Zr  0.31100061  0.73337968  0.71570562     2.06300
Zr81       Zr  0.37512510  0.78243044  0.68581143     2.10000
Zr82       Zr  0.31090004  0.77767991  0.66830223     1.78800
O83         O  0.41457756  0.78664515  0.69691886    -0.93400
O84         O  0.27074286  0.77201414  0.66450628    -0.41200
O85         O  0.33792755  0.79089021  0.69890937    -0.77800
O86         O  0.30652328  0.76667830  0.71371420    -0.96500
O87         O  0.33720173  0.74637638  0.74745771    -0.89800
O88         O  0.37129017  0.77199069  0.73163855    -0.92700
C89         C  0.31363322  0.75291705  0.60793188     1.01100
C90         C  0.39993524  0.75821266  0.63341990     1.14000
C91         C  0.32002933  0.69741630  0.67016344     1.04800
O92         O  0.27218322  0.72873749  0.70178625    -0.94800
O93         O  0.28835928  0.74243933  0.75383622    -0.90600
O94         O  0.30098251  0.77031847  0.77029409    -0.83700
C95         C  0.28736530  0.75645370  0.76989408     1.11400
O96         O  0.40172694  0.71544843  0.72141516    -0.96800
Zr97       Zr  0.37445922  0.73910647  0.73456802     1.88900
O98         O  0.35249922  0.77371359  0.78796941    -0.73400
O99         O  0.30972287  0.70776026  0.74814599    -0.52700
O100        O  0.36747266  0.70985607  0.75827334    -0.97400
O101        O  0.41348916  0.74771561  0.74212527    -0.54600
O102        O  0.37524787  0.74861289  0.78239065    -0.74000
C103        C  0.36635916  0.76150250  0.79708598     0.98400
O104        O  0.31299358  0.80655453  0.76056844    -0.62800
O105        O  0.37401926  0.80834241  0.65397580    -0.57600
O106        O  0.35322600  0.80986511  0.74676108    -0.94300
O107        O  0.37955793  0.81005327  0.71332451    -0.92700
O108        O  0.31730331  0.80436858  0.63876986    -0.93000
O109        O  0.28773278  0.80388756  0.68266692    -0.91800
C110        C  0.36949790  0.81752179  0.73360976     1.17200
H111        H  0.35099990  0.77492011  0.63613027     0.33200
H112        H  0.29159608  0.77018107  0.71928970     0.44000
H113        H  0.38203470  0.77806113  0.74338127     0.37600
H114        H  0.35086839  0.71228082  0.70327704     0.34000
H115        H  0.26627415  0.77807379  0.64725714     0.25800
H116        H  0.29551969  0.70116007  0.74410894     0.31800
H117        H  0.35392059  0.71224712  0.76934001     0.37700
H118        H  0.30372512  0.80502574  0.62722499     0.32100
H119        H  0.36358558  0.81745116  0.66227942     0.31000
H120        H  0.41946501  0.79740728  0.68580762     0.32700
H121        H  0.41325271  0.75706325  0.75694716     0.31700
H122        H  0.29361805  0.80737860  0.70079543     0.35700
H123        H  0.29754014  0.80482415  0.75366704     0.28400
H124        H  0.36205464  0.70965662  0.61702401     0.32600
H125        H  0.40888348  0.71132014  0.73854459     0.35500
H126        H  0.38895757  0.81425199  0.65557100     0.28100
H127        H  0.31183332  0.80507176  0.78052509     0.40900
H128        H  0.26426163  0.74021819  0.70751293     0.31000
H129        H  0.26942822  0.75849049  0.66073836     0.38600
H130        H  0.41773647  0.75487657  0.72573231     0.30500
H131        H  0.32160691  0.69902800  0.74221238     0.30500
H132        H  0.37656658  0.70486639  0.64282565     0.30800
Zr133      Zr  0.44980999  0.52842855  0.16296094     2.17500
O134        O  0.42949102  0.55047536  0.13429337    -0.51600
O135        O  0.47216330  0.52187806  0.12187133    -0.74800
O136        O  0.46535664  0.55998727  0.16340858    -0.81500
O137        O  0.40130683  0.49377173  0.15822911    -0.83300
O138        O  0.49124555  0.56280191  0.19704437    -0.78900
O139        O  0.41458107  0.52078486  0.14020772    -0.90600
O140        O  0.49516617  0.49741268  0.13057632    -0.76500
O141        O  0.48691463  0.52205573  0.17802984    -0.86000
O142        O  0.45397638  0.49540759  0.16132548    -0.85700
O143        O  0.45119534  0.54074650  0.20866541    -0.72400
O144        O  0.42218035  0.51597357  0.19370332    -0.84600
Zr145      Zr  0.46618644  0.48785491  0.25273232     2.26400
Zr146      Zr  0.48862439  0.53407386  0.22345020     2.06300
Zr147      Zr  0.42702724  0.48288989  0.19229901     2.10000
Zr148      Zr  0.49067995  0.48890828  0.17740161     1.78800
O149        O  0.38838190  0.47443773  0.20244997    -0.93400
O150        O  0.53044796  0.49549950  0.17156471    -0.41200
O151        O  0.46390721  0.47537322  0.20759517    -0.77800
O152        O  0.49372615  0.50088547  0.22235965    -0.96500
O153        O  0.46184340  0.52097843  0.25452098    -0.89800
O154        O  0.42893961  0.49415863  0.23805675    -0.92700
C155        C  0.48718498  0.50990066  0.11480247     1.01100
C156        C  0.39995548  0.50767781  0.14204064     1.14000
C157        C  0.48015681  0.56925485  0.17674321     1.04800
O158        O  0.52789758  0.53745433  0.21089341    -0.94800
O159        O  0.51089406  0.52615007  0.26307230    -0.90600
O160        O  0.49953660  0.49745916  0.27761429    -0.83700
C161        C  0.51265399  0.51166997  0.27821752     1.11400
O162        O  0.39842271  0.55187872  0.22809653    -0.96800
Zr163      Zr  0.42474746  0.52710562  0.23959799     1.88900
O164        O  0.44560881  0.49388719  0.29447876    -0.73400
O165        O  0.48802034  0.56156945  0.25260766    -0.52700
O166        O  0.43171112  0.55604867  0.26420819    -0.97400
O167        O  0.38520051  0.51868393  0.24224690    -0.54600
O168        O  0.42134315  0.51762269  0.28702568    -0.74000
C169        C  0.43049635  0.50538689  0.30249408     0.98400
O170        O  0.48955674  0.46550877  0.27702289    -0.62800
O171        O  0.43006272  0.45815105  0.15837397    -0.57600
O172        O  0.44989588  0.45606223  0.25291563    -0.94300
O173        O  0.42545210  0.45420278  0.21771034    -0.92700
O174        O  0.48320942  0.45975684  0.15363462    -0.93000
O175        O  0.51614395  0.46481350  0.19348076    -0.91800
C176        C  0.43536656  0.44715748  0.23839534     1.17200
H177        H  0.45165017  0.49075263  0.14310431     0.33200
H178        H  0.50867599  0.49777356  0.22821748     0.44000
H179        H  0.41802904  0.48795400  0.24938135     0.37600
H180        H  0.44845995  0.55400576  0.20886937     0.34000
H181        H  0.53515894  0.48768017  0.15596733     0.25800
H182        H  0.48338362  0.55689853  0.27067579     0.31800
H183        H  0.44224915  0.55259235  0.27889624     0.37700
H184        H  0.49533871  0.45873104  0.13998469     0.32100
H185        H  0.41620576  0.45070520  0.16056233     0.31000
H186        H  0.38528085  0.46338187  0.19095044     0.32700
H187        H  0.38405588  0.51001083  0.25781443     0.31700
H188        H  0.50928124  0.46030945  0.21058400     0.35700
H189        H  0.47977010  0.45992086  0.29106330     0.28400
H190        H  0.44074080  0.55614844  0.12204125     0.32600
H191        H  0.39060868  0.55503307  0.24526794     0.35500
H192        H  0.42819718  0.46435920  0.14056214     0.28100
H193        H  0.49258746  0.45532228  0.26390947     0.40900
H194        H  0.53429314  0.52478048  0.21270085     0.31000
H195        H  0.53100168  0.50842286  0.16454590     0.38600
H196        H  0.38252355  0.51077429  0.22604755     0.30500
H197        H  0.50398719  0.56500292  0.25490571     0.30500
H198        H  0.42458516  0.56068881  0.14649999     0.30800
Zr199      Zr  0.45411830  0.74179931  0.12759408     2.17500
O200        O  0.43573929  0.71955122  0.15781853    -0.51600
O201        O  0.47695128  0.74972484  0.16775018    -0.74800
O202        O  0.47223486  0.71124254  0.12803578    -0.81500
O203        O  0.40445724  0.77534535  0.13297847    -0.83300
O204        O  0.49321402  0.70720145  0.08995353    -0.78900
O205        O  0.41827480  0.74817804  0.14978733    -0.90600
O206        O  0.50071311  0.77272533  0.15544409    -0.76500
O207        O  0.49006565  0.74787057  0.10874032    -0.86000
O208        O  0.45848765  0.77486427  0.12838619    -0.85700
O209        O  0.45274040  0.72881446  0.08215136    -0.72400
O210        O  0.42513866  0.75389034  0.09869543    -0.84600
Zr211      Zr  0.46516095  0.78162445  0.03576238     2.26400
Zr212      Zr  0.48888982  0.73563446  0.06346304     2.06300
Zr213      Zr  0.42988953  0.78689085  0.09933009     2.10000
Zr214      Zr  0.49423373  0.78089988  0.10883026     1.78800
O215        O  0.39076577  0.79587331  0.09420852    -0.93400
O216        O  0.53357040  0.77207688  0.11254786    -0.41200
O217        O  0.46571111  0.79442646  0.08086472    -0.77800
O218        O  0.49441719  0.76877127  0.06371848    -0.96500
O219        O  0.46055248  0.74855601  0.03475701    -0.89800
O220        O  0.42913939  0.77516768  0.05399018    -0.92700
C221        C  0.49293308  0.76126666  0.17293886     1.01100
C222        C  0.40321349  0.76094736  0.14816097     1.14000
C223        C  0.48538184  0.70159893  0.11285264     1.04800
O224        O  0.52890055  0.73106556  0.07056471    -0.94800
O225        O  0.50865973  0.74359146  0.02220228    -0.90600
O226        O  0.49507153  0.77112225  0.00592583    -0.83700
C227        C  0.50867319  0.75724647  0.00539956     1.11400
O228        O  0.39929718  0.71759136  0.06784675    -0.96800
Zr229      Zr  0.42460672  0.74229427  0.05309452     1.88900
O230        O  0.44141263  0.77583693  0.99634973    -0.73400
O231        O  0.48428760  0.70966732  0.03200046    -0.52700
O232        O  0.42954433  0.71437808  0.02537588    -0.97400
O233        O  0.38503676  0.75069397  0.05474452    -0.54600
O234        O  0.41737101  0.75238045  0.00661056    -0.74000
C235        C  0.42544655  0.76457482  0.99016785     0.98400
O236        O  0.48898002  0.80586008  0.01585234    -0.62800
O237        O  0.43561074  0.81178790  0.13236905    -0.57600
O238        O  0.44543548  0.81154454  0.03321333    -0.94300
O239        O  0.42417290  0.81380248  0.07121818    -0.92700
O240        O  0.49058868  0.81046251  0.13287260    -0.93000
O241        O  0.51981895  0.80402090  0.09014261    -0.91800
C242        C  0.43130854  0.82012191  0.04850172     1.17200
H243        H  0.45709558  0.77986664  0.14655380     0.33200
H244        H  0.50890663  0.77179323  0.05613510     0.44000
H245        H  0.41750552  0.78123379  0.04361743     0.37600
H246        H  0.45016925  0.71552604  0.08277163     0.34000
H247        H  0.53935558  0.77925705  0.12826895     0.25800
H248        H  0.49853410  0.70264214  0.03321634     0.31800
H249        H  0.43827627  0.71853444  0.00937222     0.37700
H250        H  0.50165637  0.80980245  0.14784304     0.32100
H251        H  0.42437253  0.82137898  0.12752582     0.31000
H252        H  0.38865281  0.80648104  0.10686513     0.32700
H253        H  0.38373094  0.76225865  0.04391008     0.31700
H254        H  0.51209544  0.80874477  0.07372272     0.35700
H255        H  0.48498399  0.81771213  0.02495769     0.28400
H256        H  0.44748080  0.71512890  0.17048614     0.32600
H257        H  0.39096322  0.71373625  0.05134865     0.35500
H258        H  0.43016815  0.80660152  0.14980138     0.28100
H259        H  0.50425945  0.80325743  0.02274073     0.40900
H260        H  0.53566919  0.74350247  0.06753245     0.31000
H261        H  0.53336686  0.75897953  0.11890547     0.38600
H262        H  0.38245458  0.75475069  0.07374521     0.30500
H263        H  0.47303490  0.70144257  0.04063731     0.30500
H264        H  0.43200188  0.70860129  0.14638350     0.30800
Zr265      Zr  0.08676371  0.52838830  0.29302455     2.17500
O266        O  0.06435766  0.55107794  0.26804810    -0.51600
O267        O  0.10896302  0.52127832  0.25293453    -0.74800
O268        O  0.10621270  0.55805851  0.28764097    -0.81500
O269        O  0.03608044  0.49619640  0.29111690    -0.83300
O270        O  0.13366526  0.55892584  0.31961299    -0.78900
O271        O  0.05364990  0.51935017  0.26763405    -0.90600
O272        O  0.13313203  0.49788757  0.26272345    -0.76500
O273        O  0.12348464  0.52062065  0.30782978    -0.86000
O274        O  0.08839646  0.49516089  0.29357446    -0.85700
O275        O  0.08996705  0.54285054  0.33701427    -0.72400
O276        O  0.05844395  0.51835696  0.32440056    -0.84600
Zr277      Zr  0.10081732  0.49144695  0.38531859     2.26400
Zr278      Zr  0.12660512  0.53412577  0.35216506     2.06300
Zr279      Zr  0.06105443  0.48507022  0.32601051     2.10000
Zr280      Zr  0.12492828  0.48751060  0.30876674     1.78800
O281        O  0.02284040  0.48016396  0.34182476    -0.93400
O282        O  0.16557247  0.49059459  0.30763624    -0.41200
O283        O  0.09778751  0.47702119  0.34132105    -0.77800
O284        O  0.12924337  0.50069884  0.35317463    -0.96500
O285        O  0.09891575  0.52463518  0.38449969    -0.89800
O286        O  0.06405516  0.49873333  0.37008757    -0.92700
C287        C  0.12508806  0.51028087  0.24662552     1.01100
C288        C  0.03724195  0.50815913  0.27186150     1.14000
C289        C  0.12337460  0.56561301  0.29888836     1.04800
O290        O  0.16587316  0.54219666  0.34580244    -0.94800
O291        O  0.15082330  0.52392672  0.38878563    -0.90600
O292        O  0.13386298  0.50005867  0.41123895    -0.83700
C293        C  0.15012319  0.51144262  0.40742609     1.11400
O294        O  0.04083809  0.55833125  0.35136158    -0.96800
Zr295      Zr  0.06229982  0.53190154  0.36852869     1.88900
O296        O  0.07710838  0.49773457  0.42478564    -0.73400
O297        O  0.12227961  0.56128106  0.38146961    -0.52700
O298        O  0.07056518  0.55911344  0.39657802    -0.97400
O299        O  0.02180643  0.52755688  0.37142922    -0.54600
O300        O  0.05499305  0.52236284  0.41460195    -0.74000
C301        C  0.06172346  0.50955659  0.43076154     0.98400
O302        O  0.12197077  0.47049480  0.41477559    -0.62800
O303        O  0.05870810  0.46018921  0.29236798    -0.57600
O304        O  0.08491740  0.46022346  0.38676272    -0.94300
O305        O  0.06048217  0.45613243  0.35188258    -0.92700
O306        O  0.11453241  0.46048028  0.28145710    -0.93000
O307        O  0.14465744  0.45924264  0.32213722    -0.91800
C308        C  0.07073347  0.45043653  0.37328015     1.17200
H309        H  0.08541996  0.49003035  0.27574293     0.33200
H310        H  0.14379161  0.49660515  0.35927516     0.44000
H311        H  0.05268588  0.49341656  0.38170845     0.37600
H312        H  0.08873665  0.55628073  0.33566274     0.34000
H313        H  0.17019039  0.48449459  0.29045173     0.25800
H314        H  0.12679143  0.55691043  0.39975514     0.31800
H315        H  0.08007856  0.55437967  0.41155069     0.37700
H316        H  0.12570624  0.46009558  0.26658767     0.32100
H317        H  0.06803031  0.44995652  0.29973168     0.31000
H318        H  0.01701529  0.46987128  0.33039211     0.32700
H319        H  0.01722460  0.53427793  0.38812858     0.31700
H320        H  0.13708266  0.45515805  0.33902432     0.35700
H321        H  0.11113890  0.46590513  0.42846559     0.28400
H322        H  0.07427413  0.55624257  0.25377915     0.32600
H323        H  0.03372394  0.56409970  0.36749965     0.35500
H324        H  0.04312652  0.45553517  0.29372497     0.28100
H325        H  0.12569154  0.45947929  0.40348006     0.40900
H326        H  0.17059944  0.53492176  0.32967242     0.31000
H327        H  0.16823781  0.50404095  0.30446308     0.38600
H328        H  0.01970472  0.51421997  0.37592785     0.30500
H329        H  0.13447191  0.56981705  0.37586314     0.30500
H330        H  0.06181151  0.56147225  0.28094550     0.30800
Zr331      Zr  0.09146979  0.23241284  0.49806624     2.17500
O332        O  0.07004916  0.20759340  0.51991177    -0.51600
O333        O  0.11180423  0.23865570  0.53983944    -0.74800
O334        O  0.11159591  0.20240563  0.49828659    -0.81500
O335        O  0.04156339  0.26497606  0.50634509    -0.83300
O336        O  0.13604917  0.20318946  0.46301184    -0.78900
O337        O  0.05770459  0.23879373  0.52392888    -0.90600
O338        O  0.13275588  0.26468669  0.53412852    -0.76500
O339        O  0.12793035  0.24160394  0.48395004    -0.86000
O340        O  0.09272613  0.26567449  0.50157885    -0.85700
O341        O  0.09429705  0.22140079  0.45207270    -0.72400
O342        O  0.06262876  0.24459940  0.46889808    -0.84600
Zr343      Zr  0.10444890  0.27529519  0.41002848     2.26400
Zr344      Zr  0.13071550  0.23143250  0.43778118     2.06300
Zr345      Zr  0.06517157  0.27791118  0.47108374     2.10000
Zr346      Zr  0.12894300  0.27470385  0.48702956     1.78800
O347        O  0.02649821  0.28324863  0.45748340    -0.93400
O348        O  0.16892433  0.26922372  0.49302928    -0.41200
O349        O  0.10164021  0.28685788  0.45597209    -0.77800
O350        O  0.13319784  0.26460382  0.44083357    -0.96500
O351        O  0.10229483  0.24225221  0.40743282    -0.89800
O352        O  0.06778550  0.26715947  0.42507026    -0.92700
C353        C  0.12517038  0.25125049  0.54874924     1.01100
C354        C  0.04210594  0.25106131  0.52268594     1.14000
C355        C  0.12704955  0.19508217  0.48343099     1.04800
O356        O  0.17016466  0.22860860  0.44972263    -0.94800
O357        O  0.15352773  0.24158167  0.40019013    -0.90600
O358        O  0.13980393  0.26963307  0.38660683    -0.83700
C359        C  0.15430040  0.25642018  0.38579884     1.11400
O360        O  0.04494604  0.20664188  0.43830969    -0.96800
Zr361      Zr  0.06582984  0.23396824  0.42313447     1.88900
O362        O  0.08245441  0.26841902  0.36863659    -0.73400
O363        O  0.13137904  0.20623666  0.40454576    -0.52700
O364        O  0.07163304  0.20693417  0.39388770    -0.97400
O365        O  0.02556293  0.23990152  0.42233759    -0.54600
O366        O  0.05885798  0.24432561  0.37739256    -0.74000
C367        C  0.06690713  0.25685540  0.36170372     0.98400
O368        O  0.12146578  0.29776182  0.37896359    -0.62800
O369        O  0.06398118  0.30210854  0.50598686    -0.57600
O370        O  0.08983998  0.30686710  0.41485521    -0.94300
O371        O  0.06422007  0.30826222  0.44886834    -0.92700
O372        O  0.11910556  0.30282178  0.51220350    -0.93000
O373        O  0.15219385  0.30126739  0.47456380    -0.91800
C374        C  0.07534024  0.31565760  0.42929397     1.17200
H375        H  0.08980917  0.26972411  0.51996110     0.33200
H376        H  0.14787443  0.26889740  0.43543764     0.44000
H377        H  0.05644629  0.27303656  0.41395917     0.37600
H378        H  0.09308789  0.20797072  0.45134565     0.34000
H379        H  0.17279771  0.27572226  0.51017805     0.25800
H380        H  0.14533187  0.19928500  0.40848200     0.31800
H381        H  0.08103834  0.21151900  0.37872478     0.37700
H382        H  0.12766842  0.30199949  0.52940058     0.32100
H383        H  0.04877588  0.30753909  0.50449221     0.31000
H384        H  0.02023162  0.29137375  0.47188858     0.32700
H385        H  0.02065962  0.23632098  0.40381656     0.31700
H386        H  0.14514310  0.30624370  0.45784854     0.35700
H387        H  0.10893990  0.30353711  0.36879385     0.28400
H388        H  0.07946705  0.20323323  0.53521578     0.32600
H389        H  0.03447610  0.20356917  0.42333304     0.35500
H390        H  0.06385036  0.29542781  0.52357488     0.28100
H391        H  0.12763884  0.30785628  0.39051723     0.40900
H392        H  0.17577053  0.24160122  0.45032331     0.31000
H393        H  0.17009923  0.25581134  0.49755022     0.38600
H394        H  0.02398928  0.25362801  0.42279895     0.30500
H395        H  0.11916391  0.19772491  0.41018375     0.30500
H396        H  0.06979305  0.19709633  0.50681756     0.30800
Zr397      Zr  0.21450796  0.52625737  0.00152102     2.17500
O398        O  0.23861698  0.54996501  0.02174279    -0.51600
O399        O  0.19439273  0.52094128  0.04369449    -0.74800
O400        O  0.19659084  0.55711071  0.00345975    -0.81500
O401        O  0.25927366  0.48883973  0.01260549    -0.83300
O402        O  0.17518835  0.56002567  0.96553321    -0.78900
O403        O  0.24716407  0.51714123  0.02756608    -0.90600
O404        O  0.16746814  0.49918233  0.03604161    -0.76500
O405        O  0.17730449  0.52099060  0.98592653    -0.86000
O406        O  0.20841982  0.49342364  0.00515408    -0.85700
O407        O  0.21463638  0.53761562  0.95567742    -0.72400
O408        O  0.24215935  0.51156042  0.97318422    -0.84600
Zr409      Zr  0.19777781  0.48465873  0.91384153     2.26400
Zr410      Zr  0.17747811  0.53146109  0.93981637     2.06300
Zr411      Zr  0.23510056  0.47873702  0.97585472     2.10000
Zr412      Zr  0.17141810  0.48823409  0.98921424     1.78800
O413        O  0.27361838  0.46855445  0.96888799    -0.93400
O414        O  0.13173234  0.49549384  0.99455145    -0.41200
O415        O  0.19800572  0.47325558  0.95979087    -0.77800
O416        O  0.16999545  0.49878052  0.94290245    -0.96500
O417        O  0.20451171  0.51724083  0.91075199    -0.89800
O418        O  0.23491700  0.48955080  0.92997140    -0.92700
C419        C  0.17810095  0.51060534  0.05156046     1.01100
C420        C  0.26059824  0.50316898  0.02818803     1.14000
C421        C  0.18335471  0.56635039  0.98780565     1.04800
O422        O  0.13803983  0.53775231  0.94866296    -0.94800
O423        O  0.15662339  0.52344666  0.89947216    -0.90600
O424        O  0.16784343  0.49511809  0.88423464    -0.83700
C425        C  0.15514112  0.50950055  0.88321078     1.11400
O426        O  0.26730482  0.54705703  0.93999921    -0.96800
Zr427      Zr  0.24145425  0.52218381  0.92721215     1.88900
O428        O  0.21918436  0.48955217  0.87185638    -0.73400
O429        O  0.18203326  0.55721386  0.90803003    -0.52700
O430        O  0.23741894  0.54917365  0.89753037    -0.97400
O431        O  0.28067082  0.51262303  0.92751933    -0.54600
O432        O  0.24687183  0.51033462  0.88166619    -0.74000
C433        C  0.23666707  0.49915580  0.86551876     0.98400
O434        O  0.17284451  0.45939582  0.89948793    -0.62800
O435        O  0.22807983  0.45380054  0.00832491    -0.57600
O436        O  0.21592157  0.45444522  0.91056743    -0.94300
O437        O  0.23573147  0.44996243  0.94960326    -0.92700
O438        O  0.17688821  0.45983755  0.01544986    -0.93000
O439        O  0.14583520  0.46375351  0.97439867    -0.91800
C440        C  0.22801815  0.44453249  0.92654347     1.17200
H441        H  0.21032322  0.48912094  0.02360515     0.33200
H442        H  0.15517330  0.49608945  0.93608350     0.44000
H443        H  0.24565596  0.48273968  0.91917659     0.37600
H444        H  0.21775269  0.55085984  0.95543629     0.34000
H445        H  0.12762994  0.49046529  0.01262692     0.25800
H446        H  0.16878004  0.56526760  0.91103847     0.31800
H447        H  0.25008406  0.54833039  0.88457857     0.37700
H448        H  0.16449443  0.45981839  0.02883191     0.32100
H449        H  0.24045302  0.44482527  0.00538433     0.31000
H450        H  0.27598225  0.46913571  0.94898616     0.32700
H451        H  0.28126057  0.50117445  0.91627464     0.31700
H452        H  0.15469301  0.45617852  0.96142824     0.35700
H453        H  0.17442925  0.44961503  0.91354838     0.28400
H454        H  0.22985695  0.55545998  0.03685745     0.32600
H455        H  0.27701568  0.54908839  0.92394196     0.35500
H456        H  0.23117971  0.45933080  0.02637257     0.28100
H457        H  0.15742100  0.46409093  0.90237154     0.40900
H458        H  0.13075155  0.52534649  0.94837591     0.31000
H459        H  0.13119906  0.50919932  0.99688335     0.38600
H460        H  0.28340854  0.50822779  0.94630241     0.30500
H461        H  0.19480505  0.56453644  0.91520023     0.30500
H462        H  0.23979351  0.55997240  0.00796729     0.30800
Zr463      Zr  0.21839760  0.23155580  0.79135909     2.17500
O464        O  0.24056345  0.20707604  0.76977920    -0.51600
O465        O  0.19661755  0.23835631  0.75076299    -0.74800
O466        O  0.19798533  0.20216628  0.78835315    -0.81500
O467        O  0.26583864  0.26620494  0.78004674    -0.83300
O468        O  0.17473947  0.20129680  0.82473412    -0.78900
O469        O  0.25111186  0.23900987  0.76432505    -0.90600
O470        O  0.17253863  0.26196157  0.75986772    -0.76500
O471        O  0.18217083  0.23886524  0.80843494    -0.86000
O472        O  0.21516092  0.26465516  0.78903432    -0.85700
O473        O  0.21812875  0.21920995  0.83677482    -0.72400
O474        O  0.24775324  0.24383498  0.81945750    -0.84600
Zr475      Zr  0.20764985  0.27207344  0.88123700     2.26400
Zr476      Zr  0.18207909  0.22760768  0.85414079     2.06300
Zr477      Zr  0.24368464  0.27693562  0.81808632     2.10000
Zr478      Zr  0.17913719  0.27187337  0.80656596     1.78800
O479        O  0.28300636  0.28248914  0.82851116    -0.93400
O480        O  0.13918775  0.26494027  0.80466498    -0.41200
O481        O  0.20756368  0.28447796  0.83580779    -0.77800
O482        O  0.17792363  0.26074269  0.85240040    -0.96500
O483        O  0.21108485  0.23913571  0.88315548    -0.89800
O484        O  0.24383993  0.26533812  0.86370515    -0.92700
C485        C  0.18114715  0.24980505  0.74376233     1.01100
C486        C  0.26575379  0.25212641  0.76396260     1.14000
C487        C  0.18265646  0.19436621  0.80267293     1.04800
O488        O  0.14198831  0.22169048  0.85117373    -0.94800
O489        O  0.16077536  0.23720539  0.89356471    -0.90600
O490        O  0.17535194  0.26452751  0.90881709    -0.83700
C491        C  0.16088767  0.25131311  0.90958296     1.11400
O492        O  0.27315670  0.20975577  0.84534276    -0.96800
Zr493      Zr  0.24705840  0.23222372  0.86496503     1.88900
O494        O  0.23144447  0.26589428  0.92090516    -0.73400
O495        O  0.18751450  0.20098108  0.88401930    -0.52700
O496        O  0.24239592  0.20230308  0.88770910    -0.97400
O497        O  0.28628960  0.24087282  0.87117247    -0.54600
O498        O  0.25137018  0.23953525  0.91274065    -0.74000
C499        C  0.24496875  0.25287523  0.92825595     0.98400
O500        O  0.18792179  0.29469828  0.90966282    -0.62800
O501        O  0.24180209  0.30296585  0.78637127    -0.57600
O502        O  0.22349991  0.30307100  0.87964792    -0.94300
O503        O  0.24444736  0.30659731  0.84141817    -0.92700
O504        O  0.18514383  0.30035776  0.78057007    -0.93000
O505        O  0.15565742  0.29742579  0.82249385    -0.91800
C506        C  0.23566767  0.31267228  0.86346495     1.17200
H507        H  0.21699600  0.26912037  0.77065100     0.33200
H508        H  0.16347600  0.26444238  0.85938496     0.44000
H509        H  0.25535779  0.27138856  0.87433193     0.37600
H510        H  0.21975804  0.20578548  0.83635508     0.34000
H511        H  0.13355548  0.27214789  0.78892918     0.25800
H512        H  0.19272636  0.20641577  0.90143400     0.31800
H513        H  0.25574317  0.20106151  0.89952902     0.37700
H514        H  0.17884817  0.29781784  0.76231106     0.32100
H515        H  0.25730759  0.30784346  0.78546015     0.31000
H516        H  0.28814886  0.29130265  0.81434369     0.32700
H517        H  0.28638912  0.25083872  0.88511976     0.31700
H518        H  0.16208608  0.30090372  0.84036466     0.35700
H519        H  0.19925305  0.29981294  0.92236674     0.28400
H520        H  0.23166995  0.20282398  0.75394947     0.32600
H521        H  0.28237997  0.20516791  0.86067272     0.35500
H522        H  0.23910111  0.29732365  0.76830055     0.28100
H523        H  0.18382695  0.30519979  0.89758821     0.40900
H524        H  0.13623023  0.23159615  0.83906012     0.31000
H525        H  0.13836846  0.25178389  0.79861952     0.38600
H526        H  0.29043336  0.24729573  0.85409552     0.30500
H527        H  0.17215844  0.19649843  0.88791390     0.30500
H528        H  0.24046415  0.19646255  0.78263485     0.30800
Zr529      Zr  0.35675002  0.23742441  0.16160662     2.17500
O530        O  0.37768184  0.21407021  0.13597492    -0.51600
O531        O  0.33546823  0.24425668  0.11996676    -0.74800
O532        O  0.33704386  0.20762500  0.15978663    -0.81500
O533        O  0.40677862  0.27074067  0.15525450    -0.83300
O534        O  0.31215456  0.20548895  0.19453068    -0.78900
O535        O  0.39260308  0.24329428  0.13949834    -0.90600
O536        O  0.31162108  0.26795058  0.12946788    -0.76500
O537        O  0.32009514  0.24523461  0.17681341    -0.86000
O538        O  0.35487616  0.27060010  0.15982706    -0.85700
O539        O  0.35413300  0.22470473  0.20688163    -0.72400
O540        O  0.38508690  0.24855647  0.19238635    -0.84600
Zr541      Zr  0.34326346  0.27828268  0.25090917     2.26400
Zr542      Zr  0.31744553  0.23339451  0.22225548     2.06300
Zr543      Zr  0.38261402  0.28181246  0.19106977     2.10000
Zr544      Zr  0.31839677  0.27839545  0.17552193     1.78800
O545        O  0.42234549  0.28814401  0.19785870    -0.93400
O546        O  0.27809852  0.27322975  0.17246862    -0.41200
O547        O  0.34614298  0.29087226  0.20592315    -0.77800
O548        O  0.31472692  0.26672070  0.22065815    -0.96500
O549        O  0.34522817  0.24505687  0.25290080    -0.89800
O550        O  0.37988601  0.26997454  0.23631567    -0.92700
C551        C  0.31964732  0.25558376  0.11335447     1.01100
C552        C  0.40756679  0.25617748  0.14021312     1.14000
C553        C  0.32164779  0.19902644  0.17304279     1.04800
O554        O  0.27727347  0.23173667  0.21390751    -0.94800
O555        O  0.29692307  0.24292486  0.26272680    -0.90600
O556        O  0.30981716  0.27128157  0.27683158    -0.83700
C557        C  0.29613797  0.25749955  0.27795268     1.11400
O558        O  0.40884532  0.21394153  0.22180666    -0.96800
Zr559      Zr  0.38163295  0.23685240  0.23775491     1.88900
O560        O  0.36103954  0.26945942  0.29334340    -0.73400
O561        O  0.31750259  0.20611108  0.25182425    -0.52700
O562        O  0.37382588  0.20642317  0.25759595    -0.97400
O563        O  0.42050529  0.24473517  0.24811858    -0.54600
O564        O  0.38121174  0.24303639  0.28639234    -0.74000
C565        C  0.37312719  0.25584614  0.30178792     0.98400
O566        O  0.31995892  0.30286093  0.26992751    -0.62800
O567        O  0.37852907  0.30776895  0.15963116    -0.57600
O568        O  0.36508226  0.30733471  0.25612752    -0.94300
O569        O  0.38924211  0.30841316  0.22053024    -0.92700
O570        O  0.32585844  0.30611399  0.14849982    -0.93000
O571        O  0.29578477  0.30480887  0.19025622    -0.91800
C572        C  0.38097835  0.31518006  0.24253602     1.17200
H573        H  0.35758009  0.27518916  0.14165729     0.33200
H574        H  0.30005261  0.27054988  0.22685209     0.44000
H575        H  0.39115561  0.27541530  0.24799602     0.37600
H576        H  0.35572317  0.21132832  0.20647228     0.34000
H577        H  0.27338635  0.27991942  0.15582195     0.25800
H578        H  0.30238002  0.20060053  0.24967551     0.31800
H579        H  0.36090944  0.20859981  0.26981018     0.37700
H580        H  0.31438550  0.30589511  0.13395966     0.32100
H581        H  0.36823141  0.31650052  0.16897991     0.31000
H582        H  0.42567465  0.29895122  0.18601331     0.32700
H583        H  0.42005250  0.25169525  0.26550316     0.31700
H584        H  0.29616635  0.30430128  0.21036613     0.35700
H585        H  0.32850606  0.30789507  0.28554252     0.28400
H586        H  0.36740950  0.20964142  0.12154943     0.32600
H587        H  0.41505925  0.20809386  0.23840042     0.35500
H588        H  0.39323307  0.31415821  0.16002449     0.28100
H589        H  0.31998799  0.31284352  0.25605249     0.40900
H590        H  0.27582480  0.22728746  0.19492942     0.31000
H591        H  0.27650873  0.25986632  0.16776285     0.38600
H592        H  0.42466208  0.25420765  0.23438357     0.30500
H593        H  0.32768175  0.19704521  0.24297982     0.30500
H594        H  0.37948753  0.20334169  0.14844522     0.30800
Zr595      Zr  0.35655960  0.02470887  0.12260973     2.17500
O596        O  0.37698988  0.04436829  0.15467729    -0.51600
O597        O  0.33408940  0.01672477  0.16251700    -0.74800
O598        O  0.34041264  0.05600037  0.12557666    -0.81500
O599        O  0.40762518  0.99206915  0.12197572    -0.83300
O600        O  0.31387446  0.05966331  0.09287572    -0.78900
O601        O  0.39230612  0.01698487  0.14373278    -0.90600
O602        O  0.30744454  0.99576521  0.14997150    -0.76500
O603        O  0.31947466  0.01798837  0.10779598    -0.86000
O604        O  0.35374815  0.99155794  0.12124046    -0.85700
O605        O  0.35385301  0.03941917  0.07867041    -0.72400
O606        O  0.38441357  0.01466514  0.09047730    -0.84600
Zr607      Zr  0.34089470  0.98840184  0.02966997     2.26400
Zr608      Zr  0.31666515  0.03210704  0.06386582     2.06300
Zr609      Zr  0.38088855  0.98150113  0.08857394     2.10000
Zr610      Zr  0.31701116  0.98482928  0.10526237     1.78800
O611        O  0.41934970  0.97244560  0.07843873    -0.93400
O612        O  0.27630453  0.98752813  0.10511495    -0.41200
O613        O  0.34409914  0.97359864  0.07320587    -0.77800
O614        O  0.31309890  0.99879271  0.06172048    -0.96500
O615        O  0.34369987  0.02158753  0.03122492    -0.89800
O616        O  0.37797174  0.99522198  0.04446663    -0.92700
C617        C  0.31654729  0.00682941  0.16709870     1.01100
C618        C  0.40800776  0.00502045  0.13992350     1.14000
C619        C  0.32524425  0.06556309  0.11333778     1.04800
O620        O  0.27726662  0.03467479  0.07625334    -0.94800
O621        O  0.29372831  0.02473460  0.02486921    -0.90600
O622        O  0.30698268  0.99775426  0.00623806    -0.83700
C623        C  0.29276321  0.01111246  0.00802825     1.11400
O624        O  0.40205979  0.05496770  0.06287191    -0.96800
Zr625      Zr  0.38064267  0.02829129  0.04634379     1.88900
O626        O  0.36259811  0.99607151  0.98929251    -0.73400
O627        O  0.31656191  0.05939408  0.03442821    -0.52700
O628        O  0.37342492  0.05680149  0.02089222    -0.97400
O629        O  0.42078633  0.02219581  0.04352729    -0.54600
O630        O  0.38540875  0.02058960  0.99872700    -0.74000
C631        C  0.37752171  0.00813160  0.98264287     0.98400
O632        O  0.31825473  0.96726224  0.00206601    -0.62800
O633        O  0.37675241  0.95620790  0.12118979    -0.57600
O634        O  0.35730859  0.95719545  0.02587047    -0.94300
O635        O  0.38439467  0.95520945  0.05815139    -0.92700
O636        O  0.32489563  0.95814170  0.13428630    -0.93000
O637        O  0.29639497  0.95752055  0.08963582    -0.91800
C638        C  0.37356076  0.94872577  0.03772453     1.17200
H639        H  0.35648093  0.98626209  0.13898800     0.33200
H640        H  0.29828489  0.99541089  0.05576785     0.44000
H641        H  0.38910436  0.98995698  0.03243287     0.37600
H642        H  0.35608994  0.05275486  0.07973317     0.34000
H643        H  0.27140412  0.98185582  0.12247128     0.25800
H644        H  0.30349928  0.06684755  0.04044504     0.31800
H645        H  0.36318290  0.05305640  0.00601231     0.37700
H646        H  0.31038276  0.95518995  0.14305294     0.32100
H647        H  0.36969688  0.94595185  0.11074505     0.31000
H648        H  0.42255950  0.96189675  0.09080511     0.32700
H649        H  0.42292926  0.01535341  0.02622723     0.31700
H650        H  0.30065955  0.95614822  0.07028323     0.35700
H651        H  0.32861156  0.96126761  0.98897404     0.28400
H652        H  0.36555375  0.05030830  0.16642392     0.32600
H653        H  0.41215822  0.05849576  0.04775598     0.35500
H654        H  0.39221987  0.95185995  0.12470703     0.28100
H655        H  0.31353134  0.95719515  0.01456192     0.40900
H656        H  0.27726929  0.03647756  0.09621305     0.31000
H657        H  0.27338081  0.00101777  0.10745084     0.38600
H658        H  0.42368026  0.01278528  0.05780661     0.30500
H659        H  0.32976338  0.06676756  0.04020909     0.30500
H660        H  0.38333504  0.05462771  0.14366887     0.30800
Zr661      Zr  0.45746627  0.23855361  0.63310267     2.17500
O662        O  0.44472579  0.21803484  0.66953449    -0.51600
O663        O  0.48004821  0.24861207  0.67204546    -0.74800
O664        O  0.47607455  0.20829243  0.63349132    -0.81500
O665        O  0.40406942  0.26743306  0.63688006    -0.83300
O666        O  0.50029611  0.20657149  0.59836086    -0.78900
O667        O  0.42012935  0.24082605  0.65254847    -0.90600
O668        O  0.50315009  0.27209788  0.65931636    -0.76500
O669        O  0.49282987  0.24691012  0.61456375    -0.86000
O670        O  0.45818051  0.27186940  0.63291091    -0.85700
O671        O  0.45732347  0.22443977  0.58853210    -0.72400
O672        O  0.42717868  0.24814498  0.60425157    -0.84600
Zr673      Zr  0.46444671  0.27651863  0.53981601     2.26400
Zr674      Zr  0.49270208  0.23351359  0.56990573     2.06300
Zr675      Zr  0.42846412  0.28133155  0.60328678     2.10000
Zr676      Zr  0.49327880  0.28017319  0.61319922     1.78800
O677        O  0.38889227  0.28961086  0.60127138    -0.93400
O678        O  0.53372093  0.27596868  0.61042172    -0.41200
O679        O  0.46353685  0.29066158  0.58416819    -0.77800
O680        O  0.49480010  0.26692793  0.56873137    -0.96500
O681        O  0.46294329  0.24332429  0.54069368    -0.89800
O682        O  0.42889945  0.26842898  0.55836642    -0.92700
C683        C  0.49573703  0.26047155  0.67684275     1.01100
C684        C  0.40397860  0.25259709  0.65141207     1.14000
C685        C  0.49126495  0.19977484  0.61979744     1.04800
O686        O  0.53306178  0.22971713  0.57458058    -0.94800
O687        O  0.51236373  0.24207217  0.52891000    -0.90600
O688        O  0.49652006  0.26839762  0.51145076    -0.83700
C689        C  0.51129924  0.25536678  0.51160274     1.11400
O690        O  0.40545618  0.20935698  0.57701673    -0.96800
Zr691      Zr  0.42756734  0.23531170  0.55956943     1.88900
O692        O  0.44239728  0.26659098  0.50081267    -0.73400
O693        O  0.48854201  0.20669288  0.53990836    -0.52700
O694        O  0.43368716  0.20692651  0.53332286    -0.97400
O695        O  0.38738863  0.24132221  0.56248058    -0.54600
O696        O  0.41893580  0.24306225  0.51272290    -0.74000
C697        C  0.42706822  0.25457998  0.49541449     0.98400
O698        O  0.48435944  0.30025282  0.51377397    -0.62800
O699        O  0.43413912  0.30687844  0.63524588    -0.57600
O700        O  0.44305666  0.30560964  0.53644618    -0.94300
O701        O  0.41959277  0.30668974  0.57283424    -0.92700
O702        O  0.48766080  0.30915951  0.63817315    -0.93000
O703        O  0.51384979  0.30712294  0.59638270    -0.91800
C704        C  0.42731424  0.31319994  0.55048244     1.17200
H705        H  0.45623658  0.27687319  0.65102259     0.33200
H706        H  0.50891005  0.27082213  0.56115001     0.44000
H707        H  0.41675289  0.27337102  0.54754899     0.37600
H708        H  0.45599380  0.21105826  0.58949515     0.34000
H709        H  0.53983683  0.28336718  0.62573692     0.25800
H710        H  0.50387838  0.20158986  0.53807716     0.31800
H711        H  0.44431519  0.21056103  0.51881017     0.37700
H712        H  0.47704395  0.30605306  0.65293113     0.32100
H713        H  0.43799180  0.31772060  0.62369947     0.31000
H714        H  0.38753105  0.30131363  0.61185406     0.32700
H715        H  0.38226953  0.24268121  0.54344714     0.31700
H716        H  0.50805923  0.30906408  0.57773887     0.35700
H717        H  0.47359053  0.30488331  0.50002473     0.28400
H718        H  0.45821881  0.21491069  0.68033466     0.32600
H719        H  0.39601256  0.20515874  0.56161149     0.35500
H720        H  0.41902969  0.30974180  0.64239764     0.28100
H721        H  0.48660587  0.31077922  0.52651663     0.40900
H722        H  0.53613871  0.23205224  0.59406225     0.31000
H723        H  0.53624808  0.26285494  0.61582423     0.38600
H724        H  0.38610266  0.25399287  0.57034631     0.30500
H725        H  0.48034477  0.19728147  0.55075235     0.30500
H726        H  0.44015939  0.20619296  0.66073957     0.30800
Zr727      Zr  0.45951090  0.02528096  0.65081508     2.17500
O728        O  0.44502703  0.04759195  0.61772879    -0.51600
O729        O  0.48168114  0.01594621  0.61099878    -0.74800
O730        O  0.47917851  0.05514968  0.65183493    -0.81500
O731        O  0.40482001  0.99736676  0.64620383    -0.83300
O732        O  0.50285494  0.05644306  0.68763533    -0.78900
O733        O  0.42316985  0.02249595  0.62898337    -0.90600
O734        O  0.50244124  0.99036876  0.62058444    -0.76500
O735        O  0.49496018  0.01515583  0.66688399    -0.86000
O736        O  0.45839064  0.99209475  0.64975849    -0.85700
O737        O  0.46151677  0.03796423  0.69616446    -0.72400
O738        O  0.42929298  0.01648050  0.68055672    -0.84600
Zr739      Zr  0.46740323  0.98388388  0.74107093     2.26400
Zr740      Zr  0.49709493  0.02729631  0.71212216     2.06300
Zr741      Zr  0.42871064  0.98321469  0.67983356     2.10000
Zr742      Zr  0.49367224  0.98190799  0.66673679     1.78800
O743        O  0.38969264  0.97874928  0.69286804    -0.93400
O744        O  0.53437498  0.98472605  0.66574442    -0.41200
O745        O  0.46391421  0.97197184  0.69580229    -0.77800
O746        O  0.49758736  0.99376936  0.71189353    -0.96500
O747        O  0.46803075  0.01714302  0.74202464    -0.89800
O748        O  0.43180386  0.99430847  0.72538400    -0.92700
C749        C  0.49597412  0.00327937  0.60447036     1.01100
C750        C  0.40621078  0.01154680  0.63049581     1.14000
C751        C  0.49381884  0.06367813  0.66646388     1.04800
O752        O  0.53671078  0.02761494  0.70019836    -0.94800
O753        O  0.51563796  0.01765371  0.75307390    -0.90600
O754        O  0.49879670  0.99166174  0.77037910    -0.83700
C755        C  0.51381945  0.00446422  0.77041481     1.11400
O756        O  0.41299182  0.05611667  0.71456062    -0.96800
Zr757      Zr  0.43267528  0.02744533  0.72630669     1.88900
O758        O  0.44717871  0.99236977  0.78236641    -0.73400
O759        O  0.49945951  0.05251255  0.74529380    -0.52700
O760        O  0.44349925  0.05447558  0.75342599    -0.97400
O761        O  0.39202298  0.02417852  0.72597768    -0.54600
O762        O  0.42622959  0.01803857  0.77302255    -0.74000
C763        C  0.43319361  0.00522629  0.78911669     0.98400
O764        O  0.48727774  0.95610661  0.75708386    -0.62800
O765        O  0.42629229  0.95988360  0.64396748    -0.57600
O766        O  0.44498788  0.95517124  0.74330414    -0.94300
O767        O  0.42377187  0.95459098  0.70499310    -0.92700
O768        O  0.48359782  0.95467921  0.63972946    -0.93000
O769        O  0.51205667  0.95363671  0.68274524    -0.91800
C770        C  0.43081723  0.94728288  0.72720256     1.17200
H771        H  0.45566223  0.98754032  0.63156730     0.33200
H772        H  0.51172717  0.98931445  0.71890575     0.44000
H773        H  0.41983660  0.98937966  0.73649797     0.37600
H774        H  0.46057741  0.05137779  0.69626926     0.34000
H775        H  0.53921627  0.97646587  0.65070471     0.25800
H776        H  0.51504449  0.05715351  0.74397266     0.31800
H777        H  0.45367529  0.04951742  0.76757185     0.37700
H778        H  0.49678218  0.95232851  0.62800027     0.32100
H779        H  0.43817613  0.95076088  0.64843828     0.31000
H780        H  0.38368584  0.96969913  0.67950342     0.32700
H781        H  0.38904189  0.01158318  0.73331858     0.31700
H782        H  0.51911611  0.95715831  0.70023567     0.35700
H783        H  0.48569549  0.94684174  0.74224956     0.28400
H784        H  0.45801698  0.05135876  0.60646955     0.32600
H785        H  0.40408603  0.05946314  0.73084620     0.35500
H786        H  0.41211809  0.95316332  0.64759772     0.28100
H787        H  0.50344848  0.95919244  0.75668147     0.40900
H788        H  0.54282804  0.01595027  0.70797279     0.31000
H789        H  0.53724471  0.99749550  0.65894792     0.38600
H790        H  0.38805803  0.02322933  0.70648235     0.30500
H791        H  0.49011547  0.06270576  0.73785141     0.30500
H792        H  0.44092462  0.05887396  0.62824731     0.30800
Zr793      Zr  0.59339481  0.02740528  0.28195013     2.17500
O794        O  0.57262567  0.05209734  0.25894176    -0.51600
O795        O  0.61383022  0.01952032  0.24088123    -0.74800
O796        O  0.61559651  0.05576876  0.27557053    -0.81500
O797        O  0.54604223  0.99210148  0.27311804    -0.83300
O798        O  0.64069922  0.05735657  0.31009348    -0.78900
O799        O  0.55935635  0.01983695  0.25732678    -0.90600
O800        O  0.63774772  0.99590714  0.25048282    -0.76500
O801        O  0.62998946  0.01915059  0.29672399    -0.86000
O802        O  0.59473911  0.99411056  0.28161406    -0.85700
O803        O  0.59654097  0.04114104  0.32632913    -0.72400
O804        O  0.56480811  0.01698725  0.31285593    -0.84600
Zr805      Zr  0.60731752  0.98900455  0.37299010     2.26400
Zr806      Zr  0.63308679  0.03206855  0.34132764     2.06300
Zr807      Zr  0.56714755  0.98363056  0.31343451     2.10000
Zr808      Zr  0.63112989  0.98599590  0.29680466     1.78800
O809        O  0.52745312  0.98264114  0.32476256    -0.93400
O810        O  0.67162506  0.98877546  0.29193870    -0.41200
O811        O  0.60376955  0.97502394  0.32864251    -0.77800
O812        O  0.63568814  0.99877877  0.34134549    -0.96500
O813        O  0.60536493  0.02214999  0.37328778    -0.89800
O814        O  0.57055735  0.99662734  0.35797518    -0.92700
C815        C  0.62932067  0.00800128  0.23428477     1.01100
C816        C  0.54547059  0.00616014  0.25699955     1.14000
C817        C  0.63216708  0.06350266  0.28793002     1.04800
O818        O  0.67332758  0.03554460  0.33525200    -0.94800
O819        O  0.65571626  0.02285436  0.37960580    -0.90600
O820        O  0.64075816  0.99691062  0.39881914    -0.83700
C821        C  0.65574446  0.00971346  0.39719167     1.11400
O822        O  0.54599716  0.05546994  0.34062149    -0.96800
Zr823      Zr  0.56880646  0.02977825  0.35757566     1.88900
O824        O  0.58531553  0.99605602  0.41350464    -0.73400
O825        O  0.63117729  0.05970671  0.37007097    -0.52700
O826        O  0.57783868  0.05800703  0.38289920    -0.97400
O827        O  0.52874688  0.02428339  0.36356297    -0.54600
O828        O  0.56335038  0.02120662  0.40473458    -0.74000
C829        C  0.57069043  0.00831553  0.42039901     0.98400
O830        O  0.62916740  0.96637512  0.39884508    -0.62800
O831        O  0.56531551  0.95507269  0.28663349    -0.57600
O832        O  0.58865256  0.95909864  0.37665016    -0.94300
O833        O  0.56382202  0.95602567  0.34203563    -0.92700
O834        O  0.62116504  0.95888592  0.26939244    -0.93000
O835        O  0.65212774  0.95924304  0.31344465    -0.91800
C836        C  0.57352179  0.95005473  0.36368642     1.17200
H837        H  0.59184290  0.98920108  0.26366119     0.33200
H838        H  0.65031107  0.99485151  0.34750183     0.44000
H839        H  0.55935094  0.99130649  0.36976601     0.37600
H840        H  0.59541034  0.05457650  0.32509923     0.34000
H841        H  0.67522231  0.98187217  0.27503832     0.25800
H842        H  0.64539108  0.06639986  0.36648228     0.31800
H843        H  0.56518336  0.05970272  0.39567330     0.37700
H844        H  0.63061288  0.95976618  0.25289377     0.32100
H845        H  0.54913087  0.95306784  0.28326828     0.31000
H846        H  0.52267961  0.96981043  0.32003343     0.32700
H847        H  0.52754636  0.01192958  0.37239665     0.31700
H848        H  0.64618475  0.95704453  0.33196586     0.35700
H849        H  0.62003153  0.96342658  0.41507405     0.28400
H850        H  0.58183332  0.05563939  0.24300415     0.32600
H851        H  0.53804460  0.06052949  0.35668441     0.35500
H852        H  0.57155743  0.95843355  0.26866051     0.28100
H853        H  0.62939074  0.95476041  0.38793381     0.40900
H854        H  0.67842934  0.02323526  0.32855279     0.31000
H855        H  0.67417378  0.00202816  0.28724741     0.38600
H856        H  0.52293300  0.02221651  0.34494615     0.30500
H857        H  0.61951828  0.06764735  0.36169475     0.30500
H858        H  0.57323113  0.06301322  0.27127747     0.30800
Zr859      Zr  0.58502975  0.73317143  0.49197182     2.17500
O860        O  0.56273680  0.70785719  0.51113286    -0.51600
O861        O  0.60339854  0.73908517  0.53569642    -0.74800
O862        O  0.60574304  0.70348388  0.49471688    -0.81500
O863        O  0.53375286  0.76576460  0.49356387    -0.83300
O864        O  0.63204049  0.70347502  0.46136398    -0.78900
O865        O  0.54926239  0.74025066  0.51372857    -0.90600
O866        O  0.62630420  0.76396648  0.53078223    -0.76500
O867        O  0.62234085  0.74240373  0.48178842    -0.86000
O868        O  0.58588503  0.76637613  0.49534262    -0.85700
O869        O  0.59133581  0.72212356  0.44638146    -0.72400
O870        O  0.55866715  0.74492014  0.45897920    -0.84600
Zr871      Zr  0.60505868  0.77634450  0.40617683     2.26400
Zr872      Zr  0.62867326  0.73203658  0.43624278     2.06300
Zr873      Zr  0.56062324  0.77824263  0.46171633     2.10000
Zr874      Zr  0.62308157  0.77550949  0.48486167     1.78800
O875        O  0.52327192  0.78383315  0.44350381    -0.93400
O876        O  0.66317798  0.77113606  0.49187024    -0.41200
O877        O  0.59803021  0.78759098  0.45136037    -0.77800
O878        O  0.63138776  0.76534780  0.43961147    -0.96500
O879        O  0.60326877  0.74328056  0.40244566    -0.89800
O880        O  0.56739963  0.76776548  0.41635450    -0.92700
C881        C  0.61780631  0.75079007  0.54502384     1.01100
C882        C  0.53348138  0.75229279  0.51065782     1.14000
C883        C  0.62189148  0.69582506  0.48137183     1.04800
O884        O  0.66727178  0.72786010  0.45107715    -0.94800
O885        O  0.65456992  0.74221789  0.40209275    -0.90600
O886        O  0.64193508  0.76986312  0.38597254    -0.83700
C887        C  0.65660289  0.75674521  0.38726815     1.11400
O888        O  0.54358598  0.70714219  0.42466639    -0.96800
Zr889      Zr  0.56583737  0.73463109  0.41349668     1.88900
O890        O  0.58514691  0.77105710  0.36343911    -0.73400
O891        O  0.63070182  0.70637885  0.40382192    -0.52700
O892        O  0.57510370  0.70805751  0.38472389    -0.97400
O893        O  0.52618884  0.74092595  0.40520167    -0.54600
O894        O  0.56426474  0.74467343  0.36679811    -0.74000
C895        C  0.57183769  0.75868920  0.35363198     0.98400
O896        O  0.61916571  0.80234925  0.37917465    -0.62800
O897        O  0.55739735  0.80174381  0.49734184    -0.57600
O898        O  0.59042195  0.80785192  0.41034324    -0.94300
O899        O  0.56067853  0.80831668  0.43882552    -0.92700
O900        O  0.61037904  0.80181616  0.51228401    -0.93000
O901        O  0.64417317  0.80404824  0.47674943    -0.91800
C902        C  0.57385235  0.81622012  0.42175471     1.17200
H903        H  0.58157291  0.77045622  0.51332187     0.33200
H904        H  0.64644694  0.76960731  0.43588776     0.44000
H905        H  0.55700877  0.77371355  0.40406161     0.37600
H906        H  0.59017607  0.70867449  0.44566185     0.34000
H907        H  0.66711203  0.77964860  0.50700325     0.25800
H908        H  0.62783863  0.71213187  0.38587561     0.31800
H909        H  0.58486068  0.70007387  0.39606997     0.37700
H910        H  0.61011442  0.79729112  0.53128327     0.32100
H911        H  0.56869403  0.81133282  0.49265965     0.31000
H912        H  0.51567607  0.77156688  0.44426360     0.32700
H913        H  0.52251953  0.73382613  0.38849605     0.31700
H914        H  0.64641762  0.80434131  0.45680847     0.35700
H915        H  0.63517017  0.80398234  0.38393486     0.28400
H916        H  0.57159188  0.70289670  0.52653522     0.32600
H917        H  0.53504659  0.70403725  0.40799680     0.35500
H918        H  0.54279793  0.80785711  0.49392348     0.28100
H919        H  0.61903989  0.79790990  0.36012278     0.40900
H920        H  0.67355261  0.74062810  0.45202538     0.31000
H921        H  0.66454147  0.75849781  0.49979182     0.38600
H922        H  0.52543145  0.75412378  0.39943996     0.30500
H923        H  0.64676382  0.70291250  0.40336093     0.30500
H924        H  0.56286184  0.69783223  0.49725589     0.30800
Zr925      Zr  0.71893283  0.02794398  0.99169030     2.17500
O926        O  0.73875603  0.05276823  0.01557375    -0.51600
O927        O  0.70199258  0.01904247  0.03430254    -0.74800
O928        O  0.69643126  0.05606495  0.99899019    -0.81500
O929        O  0.77005972  0.99608638  0.99255678    -0.83300
O930        O  0.66896014  0.05701110  0.96720954    -0.78900
O931        O  0.75493033  0.02179182  0.01262909    -0.90600
O932        O  0.67836952  0.99480838  0.02676989    -0.76500
O933        O  0.68188337  0.01911410  0.97977861    -0.86000
O934        O  0.71842238  0.99465666  0.99176169    -0.85700
O935        O  0.71320336  0.04182073  0.94795353    -0.72400
O936        O  0.74615027  0.01810636  0.95876482    -0.84600
Zr937      Zr  0.70229151  0.98968374  0.90059760     2.26400
Zr938      Zr  0.67630823  0.03195550  0.93559374     2.06300
Zr939      Zr  0.74460829  0.98472814  0.95779931     2.10000
Zr940      Zr  0.68156614  0.98599804  0.97897494     1.78800
O941        O  0.78235841  0.98048115  0.94007032    -0.93400
O942        O  0.64156549  0.98962978  0.98740711    -0.41200
O943        O  0.70754558  0.97590663  0.94472328    -0.77800
O944        O  0.67495876  0.99856927  0.93452951    -0.96500
O945        O  0.70290198  0.02286728  0.90155266    -0.89800
O946        O  0.73937083  0.99796065  0.91355370    -0.92700
C947        C  0.68737537  0.00718956  0.04222550     1.01100
C948        C  0.77049238  0.00961407  0.00971119     1.14000
C949        C  0.67896992  0.06350855  0.98821623     1.04800
O950        O  0.63658865  0.03082669  0.94689066    -0.94800
O951        O  0.65422784  0.02523901  0.89600641    -0.90600
O952        O  0.66631086  0.99714041  0.88018187    -0.83700
C953        C  0.65250622  0.01085062  0.88081001     1.11400
O954        O  0.76243205  0.05701476  0.93200564    -0.96800
Zr955      Zr  0.73984468  0.03124015  0.91484979     1.88900
O956        O  0.72336822  0.99794901  0.85920843    -0.73400
O957        O  0.67402529  0.06153803  0.91149641    -0.52700
O958        O  0.72997318  0.05966215  0.89056096    -0.97400
O959        O  0.77972070  0.02633724  0.90671806    -0.54600
O960        O  0.74290989  0.02456276  0.86690211    -0.74000
C961        C  0.73629117  0.01132126  0.85139396     0.98400
O962        O  0.68298652  0.96855576  0.86936556    -0.62800
O963        O  0.74777121  0.95888924  0.98979456    -0.57600
O964        O  0.71781101  0.95814987  0.89973231    -0.94300
O965        O  0.74405908  0.95531484  0.93287245    -0.92700
O966        O  0.69341707  0.95749692  0.00161816    -0.93000
O967        O  0.65872983  0.95936531  0.96561495    -0.91800
C968        C  0.73268451  0.94881507  0.91278631     1.17200
H969        H  0.72234104  0.98975552  0.00939812     0.33200
H970        H  0.66015686  0.99440137  0.92939780     0.44000
H971        H  0.75031838  0.99298322  0.90100125     0.37600
H972        H  0.71390434  0.05527890  0.94932501     0.34000
H973        H  0.63844916  0.98161223  0.00334273     0.25800
H974        H  0.67749184  0.05844395  0.89233112     0.31800
H975        H  0.72257300  0.06773079  0.90420868     0.37700
H976        H  0.68296849  0.95612538  0.01712327     0.32100
H977        H  0.76256056  0.95323169  0.98591264     0.31000
H978        H  0.78940761  0.97137867  0.95253372     0.32700
H979        H  0.78059534  0.01587363  0.89360473     0.31700
H980        H  0.66204776  0.95757738  0.94605814     0.35700
H981        H  0.69446890  0.96421009  0.85628692     0.28400
H982        H  0.72971371  0.05558862  0.03195876     0.32600
H983        H  0.77008405  0.06224847  0.91586727     0.35500
H984        H  0.74956038  0.96469024  0.00793867     0.28100
H985        H  0.67882512  0.95739953  0.88008700     0.40900
H986        H  0.63231745  0.01753656  0.94513864     0.31000
H987        H  0.63995173  0.00251186  0.99441596     0.38600
H988        H  0.78545054  0.02106400  0.92395738     0.30500
H989        H  0.65786033  0.06466039  0.91145984     0.30500
H990        H  0.73755957  0.06397580  0.00393936     0.30800
Zr991      Zr  0.71483259  0.73226877  0.78609379     2.17500
O992        O  0.73675914  0.70722741  0.76553525    -0.51600
O993        O  0.69503972  0.73954723  0.74417037    -0.74800
O994        O  0.69287062  0.70379555  0.78056656    -0.81500
O995        O  0.76630301  0.76360403  0.78392107    -0.83300
O996        O  0.66547972  0.70418653  0.81267957    -0.78900
O997        O  0.74895144  0.73976936  0.76149355    -0.90600
O998        O  0.67008651  0.76236966  0.75379384    -0.76500
O999        O  0.67810807  0.74082107  0.80004072    -0.86000
O1000       O  0.71385008  0.76553432  0.78529633    -0.85700
O1001       O  0.71046495  0.71901411  0.83069831    -0.72400
O1002       O  0.74286431  0.74266920  0.81763326    -0.84600
Zr1003     Zr  0.70083070  0.77164088  0.87660069     2.26400
Zr1004     Zr  0.67400415  0.72872720  0.84502565     2.06300
Zr1005     Zr  0.74106277  0.77606974  0.81762717     2.10000
Zr1006     Zr  0.67724472  0.77385885  0.79953201     1.78800
O1007       O  0.77914695  0.78207034  0.83310846    -0.93400
O1008       O  0.63673814  0.76964281  0.79847495    -0.41200
O1009       O  0.70434124  0.78498561  0.83189651    -0.77800
O1010       O  0.67235060  0.76208932  0.84459746    -0.96500
O1011       O  0.70171571  0.73846449  0.87722350    -0.89800
O1012       O  0.73754875  0.76333205  0.86227904    -0.92700
C1013       C  0.67873615  0.75028751  0.73759446     1.01100
C1014       C  0.76534543  0.75106940  0.76536985     1.14000
C1015       C  0.67519054  0.69709072  0.79181791     1.04800
O1016       O  0.63380435  0.72405889  0.83974716    -0.94800
O1017       O  0.65085449  0.73841290  0.88289394    -0.90600
O1018       O  0.66571790  0.76529068  0.89972655    -0.83700
C1019       C  0.65063585  0.75256797  0.89881731     1.11400
O1020       O  0.75526857  0.70043497  0.84882200    -0.96800
Zr1021     Zr  0.73824069  0.73002659  0.86217974     1.88900
O1022       O  0.72401506  0.76514422  0.91679051    -0.73400
O1023       O  0.67800243  0.70113688  0.87336579    -0.52700
O1024       O  0.73001980  0.70491195  0.89407752    -0.97400
O1025       O  0.77880740  0.73283965  0.85873931    -0.54600
O1026       O  0.74742096  0.74108647  0.90732275    -0.74000
C1027       C  0.74005159  0.75394337  0.92306404     0.98400
O1028       O  0.68281630  0.79271785  0.90890788    -0.62800
O1029       O  0.74397808  0.79966037  0.78221840    -0.57600
O1030       O  0.71559147  0.80321465  0.87503523    -0.94300
O1031       O  0.74143685  0.80593900  0.84155695    -0.92700
O1032       O  0.68628327  0.79990995  0.76975274    -0.93000
O1033       O  0.65674360  0.80206366  0.81147442    -0.91800
C1034       C  0.73019384  0.81257583  0.86163737     1.17200
H1035       H  0.71708569  0.77023788  0.76731122     0.33200
H1036       H  0.65772049  0.76636509  0.85017375     0.44000
H1037       H  0.74903446  0.76872227  0.87371547     0.37600
H1038       H  0.71116303  0.70553265  0.82979403     0.34000
H1039       H  0.63171065  0.77655574  0.78217139     0.25800
H1040       H  0.67756340  0.70591992  0.89225372     0.31800
H1041       H  0.74357871  0.70378576  0.90557832     0.37700
H1042       H  0.67257128  0.80190724  0.75878814     0.32100
H1043       H  0.73089173  0.80789548  0.78518089     0.31000
H1044       H  0.78494573  0.79170005  0.82052969     0.32700
H1045       H  0.78470370  0.72649897  0.87509956     0.31700
H1046       H  0.65741542  0.80258865  0.83157235     0.35700
H1047       H  0.67687384  0.80319606  0.89798708     0.28400
H1048       H  0.72821063  0.70324105  0.74927085     0.32600
H1049       H  0.76580776  0.69706469  0.86356991     0.35500
H1050       H  0.75706067  0.80735888  0.78748273     0.28100
H1051       H  0.69505117  0.79817147  0.91998439     0.40900
H1052       H  0.62786929  0.73646148  0.83463994     0.31000
H1053       H  0.63459885  0.75635855  0.79360335     0.38600
H1054       H  0.78191267  0.74623187  0.86185268     0.30500
H1055       H  0.66365872  0.69435998  0.87112498     0.30500
H1056       H  0.73571429  0.69661907  0.77833563     0.30800
Zr1057     Zr  0.85282014  0.73960347  0.15340033     2.17500
O1058       O  0.86858730  0.71936770  0.11824526    -0.51600
O1059       O  0.82923043  0.74715795  0.11403543    -0.74800
O1060       O  0.83830939  0.70778140  0.15444368    -0.81500
O1061       O  0.90166647  0.77359201  0.14729003    -0.83300
O1062       O  0.81359475  0.70477107  0.18932692    -0.78900
O1063       O  0.88844828  0.74589531  0.13144321    -0.90600
O1064       O  0.80592619  0.77088798  0.12522863    -0.76500
O1065       O  0.81651193  0.74652844  0.17055256    -0.86000
O1066       O  0.84981202  0.77279461  0.15342892    -0.85700
O1067       O  0.85279546  0.72622168  0.19844991    -0.72400
O1068       O  0.88211181  0.75089476  0.18282850    -0.84600
Zr1069     Zr  0.84131093  0.77812514  0.24567710     2.26400
Zr1070     Zr  0.81619867  0.73358475  0.21536789     2.06300
Zr1071     Zr  0.87815554  0.78405380  0.18371762     2.10000
Zr1072     Zr  0.81389922  0.77972994  0.17163825     1.78800
O1073       O  0.91784687  0.79141139  0.18828460    -0.93400
O1074       O  0.77351055  0.77511925  0.16917007    -0.41200
O1075       O  0.84218178  0.79191606  0.20131661    -0.77800
O1076       O  0.81206627  0.76682207  0.21624567    -0.96500
O1077       O  0.84478072  0.74503964  0.24510791    -0.89800
O1078       O  0.87773167  0.77143582  0.22859334    -0.92700
C1079       C  0.81361177  0.75888429  0.10835386     1.01100
C1080       C  0.90279203  0.75921042  0.13197207     1.14000
C1081       C  0.82420847  0.69841823  0.16861460     1.04800
O1082       O  0.77697180  0.73022543  0.20265016    -0.94800
O1083       O  0.79573070  0.74178634  0.25610742    -0.90600
O1084       O  0.81003377  0.76850640  0.27391298    -0.83700
C1085       C  0.79591931  0.75499506  0.27376237     1.11400
O1086       O  0.90438891  0.71318856  0.21062834    -0.96800
Zr1087     Zr  0.88108537  0.73847792  0.22793869     1.88900
O1088       O  0.86232150  0.76942594  0.28595158    -0.73400
O1089       O  0.81536286  0.70756727  0.24716122    -0.52700
O1090       O  0.87569749  0.70988125  0.25381042    -0.97400
O1091       O  0.92092389  0.74602911  0.22906252    -0.54600
O1092       O  0.88619331  0.74597696  0.27571174    -0.74000
C1093       C  0.87738389  0.75747483  0.29256477     0.98400
O1094       O  0.81854131  0.80177405  0.26816523    -0.62800
O1095       O  0.87216161  0.81034176  0.15320504    -0.57600
O1096       O  0.86137430  0.80783897  0.25048615    -0.94300
O1097       O  0.88487234  0.80987091  0.21427868    -0.92700
O1098       O  0.82180775  0.80850671  0.14723059    -0.93000
O1099       O  0.79122243  0.80493527  0.19023338    -0.91800
C1100       C  0.87674821  0.81608227  0.23665233     1.17200
H1101       H  0.85174089  0.77785470  0.13537208     0.33200
H1102       H  0.79754722  0.77018872  0.22346876     0.44000
H1103       H  0.88930005  0.77694846  0.23976033     0.37600
H1104       H  0.85541364  0.71293854  0.19835099     0.34000
H1105       H  0.76850326  0.78314839  0.15397901     0.25800
H1106       H  0.80065523  0.70150719  0.24407716     0.31800
H1107       H  0.86356472  0.71279348  0.26687300     0.37700
H1108       H  0.80697767  0.81322579  0.14141982     0.32100
H1109       H  0.87684605  0.82147931  0.16369078     0.31000
H1110       H  0.92002395  0.80290833  0.17746873     0.32700
H1111       H  0.92285823  0.75421823  0.24511011     0.31700
H1112       H  0.79868438  0.80827799  0.20754711     0.35700
H1113       H  0.82809403  0.80728544  0.28255156     0.28400
H1114       H  0.85570067  0.71494399  0.10728563     0.32600
H1115       H  0.91357030  0.70904004  0.22626292     0.35500
H1116       H  0.88377093  0.80896478  0.13897454     0.28100
H1117       H  0.81657362  0.81174013  0.25448305     0.40900
H1118       H  0.76977365  0.74192640  0.20882142     0.31000
H1119       H  0.77164616  0.76223663  0.16225285     0.38600
H1120       H  0.92326161  0.75435203  0.21327040     0.30500
H1121       H  0.82649935  0.69854125  0.24013546     0.30500
H1122       H  0.87430859  0.70814539  0.12767619     0.30800
Zr1123     Zr  0.85104573  0.52203104  0.13322538     2.17500
O1124       O  0.86783525  0.54377768  0.16566494    -0.51600
O1125       O  0.82949396  0.51381668  0.17374537    -0.74800
O1126       O  0.83402626  0.55308682  0.13393186    -0.81500
O1127       O  0.90070810  0.48843800  0.13820697    -0.83300
O1128       O  0.81094163  0.55651810  0.09759554    -0.78900
O1129       O  0.88702679  0.51588229  0.15422408    -0.90600
O1130       O  0.80580873  0.49023605  0.16304837    -0.76500
O1131       O  0.81469262  0.51520701  0.11636089    -0.86000
O1132       O  0.84805955  0.48883117  0.13349429    -0.85700
O1133       O  0.85048253  0.53534829  0.08834043    -0.72400
O1134       O  0.88000448  0.51062451  0.10348219    -0.84600
Zr1135     Zr  0.83834440  0.48345400  0.04107863     2.26400
Zr1136     Zr  0.81390858  0.52792295  0.07136567     2.06300
Zr1137     Zr  0.87603334  0.47740561  0.10281301     2.10000
Zr1138     Zr  0.81189085  0.48204977  0.11594165     1.78800
O1139       O  0.91535825  0.46896778  0.09787211    -0.93400
O1140       O  0.77218936  0.48910002  0.12117412    -0.41200
O1141       O  0.83971052  0.46971795  0.08564852    -0.77800
O1142       O  0.80961912  0.49471185  0.07118233    -0.96500
O1143       O  0.84211181  0.51650101  0.04105730    -0.89800
O1144       O  0.87486904  0.49003134  0.05795331    -0.92700
C1145       C  0.81408480  0.50202313  0.17984304     1.01100
C1146       C  0.90186481  0.50297452  0.15331853     1.14000
C1147       C  0.82037674  0.56261143  0.11930719     1.04800
O1148       O  0.77425788  0.53122799  0.08206014    -0.94800
O1149       O  0.79261282  0.52001566  0.03111156    -0.90600
O1150       O  0.80572901  0.49240948  0.01458485    -0.83700
C1151       C  0.79204591  0.50621477  0.01450356     1.11400
O1152       O  0.90208708  0.54860770  0.07406770    -0.96800
Zr1153     Zr  0.87845371  0.52298930  0.05846417     1.88900
O1154       O  0.86050559  0.49098048  0.00080674    -0.73400
O1155       O  0.81603364  0.55410262  0.03997195    -0.52700
O1156       O  0.87193126  0.55177207  0.03343930    -0.97400
O1157       O  0.91828798  0.51539788  0.05767290    -0.54600
O1158       O  0.88487662  0.51405632  0.01159041    -0.74000
C1159       C  0.87654484  0.50225140  0.99483575     0.98400
O1160       O  0.81599382  0.46057273  0.01618613    -0.62800
O1161       O  0.87054022  0.45168674  0.13441767    -0.57600
O1162       O  0.85705635  0.45336444  0.03718654    -0.94300
O1163       O  0.88190808  0.45125480  0.07213629    -0.92700
O1164       O  0.81923344  0.45261546  0.13898179    -0.93000
O1165       O  0.78718993  0.45798493  0.09788951    -0.91800
C1166       C  0.87273064  0.44507785  0.05031156     1.17200
H1167       H  0.85023015  0.48378788  0.15150686     0.33200
H1168       H  0.79495651  0.49134185  0.06439853     0.44000
H1169       H  0.88624983  0.48437309  0.04668136     0.37600
H1170       H  0.85289736  0.54862688  0.08888800     0.34000
H1171       H  0.76725744  0.48162087  0.13698390     0.25800
H1172       H  0.80213822  0.56131615  0.04319953     0.31800
H1173       H  0.88235555  0.55125084  0.01780256     0.37700
H1174       H  0.80434522  0.44793613  0.14466206     0.32100
H1175       H  0.87789245  0.44086491  0.12564265     0.31000
H1176       H  0.91732085  0.45785589  0.10957081     0.32700
H1177       H  0.91943890  0.50366512  0.04714521     0.31700
H1178       H  0.79713869  0.44985328  0.08695803     0.35700
H1179       H  0.82557537  0.45626988  0.00097572     0.28400
H1180       H  0.85571937  0.54734593  0.17839983     0.32600
H1181       H  0.91158984  0.55198444  0.05831823     0.35500
H1182       H  0.88028666  0.45470223  0.15011434     0.28100
H1183       H  0.81456706  0.44967839  0.02840222     0.40900
H1184       H  0.76766099  0.51884397  0.07806516     0.31000
H1185       H  0.77175667  0.50216663  0.12771502     0.38600
H1186       H  0.92184504  0.51171255  0.07658156     0.30500
H1187       H  0.82818851  0.56211835  0.04714893     0.30500
H1188       H  0.87142427  0.55528499  0.15542800     0.30800
Zr1189     Zr  0.94793709  0.52193240  0.66084631     2.17500
O1190       O  0.92421997  0.54392522  0.63629598    -0.51600
O1191       O  0.96893354  0.51539814  0.61942034    -0.74800
O1192       O  0.96476770  0.55281821  0.65655699    -0.81500
O1193       O  0.90030243  0.48668442  0.65770686    -0.83300
O1194       O  0.99106231  0.55658804  0.68934599    -0.78900
O1195       O  0.91375279  0.51304630  0.63804389    -0.90600
O1196       O  0.99273136  0.49125303  0.62712657    -0.76500
O1197       O  0.98554395  0.51508482  0.67277939    -0.86000
O1198       O  0.95101010  0.48875386  0.66059558    -0.85700
O1199       O  0.95186640  0.53580774  0.70506021    -0.72400
O1200       O  0.92113636  0.51080890  0.69354149    -0.84600
Zr1201     Zr  0.96728670  0.48399811  0.75086135     2.26400
Zr1202     Zr  0.98963728  0.52845486  0.71693934     2.06300
Zr1203     Zr  0.92514481  0.47768214  0.69395132     2.10000
Zr1204     Zr  0.98836667  0.48192864  0.67391054     1.78800
O1205       O  0.88574931  0.47200425  0.70395911    -0.93400
O1206       O  0.02850752  0.48752422  0.66992137    -0.41200
O1207       O  0.96253923  0.47002741  0.70690861    -0.77800
O1208       O  0.99387640  0.49514874  0.71787975    -0.96500
O1209       O  0.96392626  0.51717734  0.75051848    -0.89800
O1210       O  0.92969210  0.49066460  0.73818139    -0.92700
C1211       C  0.98421149  0.50387545  0.61194014     1.01100
C1212       C  0.89927785  0.49993363  0.64034798     1.14000
C1213       C  0.97993495  0.56243470  0.66873893     1.04800
O1214       O  0.02763354  0.53235914  0.69981554    -0.94800
O1215       O  0.01373059  0.52002221  0.75400548    -0.90600
O1216       O  0.00009986  0.49442575  0.77572430    -0.83700
C1217       C  0.01471285  0.50733441  0.77226499     1.11400
O1218       O  0.90286754  0.54926214  0.72230380    -0.96800
Zr1219     Zr  0.92628362  0.52360227  0.73803532     1.88900
O1220       O  0.94868712  0.49143770  0.79351426    -0.73400
O1221       O  0.99244278  0.55544657  0.74691655    -0.52700
O1222       O  0.93446077  0.55160070  0.76432667    -0.97400
O1223       O  0.88645861  0.51737270  0.74469257    -0.54600
O1224       O  0.92312204  0.51418744  0.78525860    -0.74000
C1225       C  0.93285925  0.50243756  0.80099030     0.98400
O1226       O  0.99176379  0.45908549  0.76740512    -0.62800
O1227       O  0.92876848  0.44986350  0.66581081    -0.57600
O1228       O  0.94731476  0.45463532  0.75833642    -0.94300
O1229       O  0.92056231  0.45221121  0.72552127    -0.92700
O1230       O  0.98047730  0.45392740  0.64752926    -0.93000
O1231       O  0.01170128  0.45572272  0.68767374    -0.91800
C1232       C  0.93084755  0.44627809  0.74666422     1.17200
H1233       H  0.94764579  0.48363382  0.64286206     0.33200
H1234       H  0.00891279  0.49176356  0.72327292     0.44000
H1235       H  0.91912279  0.48516084  0.75069602     0.37600
H1236       H  0.94959257  0.54911259  0.70441815     0.34000
H1237       H  0.03327490  0.47996624  0.65408386     0.25800
H1238       H  0.00642379  0.56182545  0.74130494     0.31800
H1239       H  0.94747782  0.54824060  0.77579976     0.37700
H1240       H  0.99357689  0.45249106  0.63534404     0.32100
H1241       H  0.93877097  0.44150713  0.67626831     0.31000
H1242       H  0.88235828  0.45980423  0.69543087     0.32700
H1243       H  0.88578226  0.50537386  0.75458066     0.31700
H1244       H  0.00350842  0.44993212  0.70299422     0.35700
H1245       H  0.98741927  0.44769330  0.75729586     0.28400
H1246       H  0.93362866  0.54914927  0.62157482     0.32600
H1247       H  0.89480595  0.55378448  0.73862243     0.35500
H1248       H  0.91389153  0.44378505  0.66677067     0.28100
H1249       H  0.00681853  0.46198620  0.76007127     0.40900
H1250       H  0.03564780  0.52090312  0.70537768     0.31000
H1251       H  0.02971799  0.50057644  0.66357178     0.38600
H1252       H  0.88069534  0.51440342  0.72630796     0.30500
H1253       H  0.98026797  0.56391301  0.74105413     0.30500
H1254       H  0.92161148  0.55441571  0.64902772     0.30800
Zr1255     Zr  0.95208431  0.73726943  0.62615057     2.17500
O1256       O  0.93263336  0.71443294  0.65438718    -0.51600
O1257       O  0.97330811  0.74423530  0.66731141    -0.74800
O1258       O  0.96964810  0.70641645  0.62580498    -0.81500
O1259       O  0.90285861  0.77089096  0.63347456    -0.83300
O1260       O  0.99346001  0.70385783  0.58999145    -0.78900
O1261       O  0.91713029  0.74374194  0.64960608    -0.90600
O1262       O  0.99680171  0.76828259  0.65866638    -0.76500
O1263       O  0.98885888  0.74557046  0.61187153    -0.86000
O1264       O  0.95412240  0.77049585  0.62812996    -0.85700
O1265       O  0.95461286  0.72495529  0.58067860    -0.72400
O1266       O  0.92344843  0.74828382  0.59584714    -0.84600
Zr1267     Zr  0.96636744  0.77820420  0.53663101     2.26400
Zr1268     Zr  0.99156627  0.73373633  0.56649880     2.06300
Zr1269     Zr  0.92651241  0.78150931  0.59691187     2.10000
Zr1270     Zr  0.99050290  0.77878366  0.61269380     1.78800
O1271       O  0.88687867  0.78731090  0.58863823    -0.93400
O1272       O  0.03094178  0.77482599  0.61637873    -0.41200
O1273       O  0.96294403  0.79055153  0.58184175    -0.77800
O1274       O  0.99480182  0.76718162  0.56754698    -0.96500
O1275       O  0.96390449  0.74501101  0.53528073    -0.89800
O1276       O  0.92956971  0.77022221  0.55136230    -0.92700
C1277       C  0.98886919  0.75563242  0.67430276     1.01100
C1278       C  0.90243184  0.75680607  0.64942273     1.14000
C1279       C  0.98357036  0.69719359  0.61104700     1.04800
O1280       O  0.02984852  0.72818283  0.58162247    -0.94800
O1281       O  0.01560883  0.74434651  0.53046893    -0.90600
O1282       O  0.99995327  0.76988230  0.51062142    -0.83700
C1283       C  0.01553056  0.75760727  0.51307649     1.11400
O1284       O  0.90543505  0.70929180  0.56046753    -0.96800
Zr1285     Zr  0.92717950  0.73720820  0.55016335     1.88900
O1286       O  0.94568274  0.77095054  0.49525124    -0.73400
O1287       O  0.99418714  0.71087343  0.53004970    -0.52700
O1288       O  0.93501850  0.71016906  0.52161539    -0.97400
O1289       O  0.88697105  0.74333330  0.55107761    -0.54600
O1290       O  0.92128535  0.74754632  0.50393545    -0.74000
C1291       C  0.93015245  0.75960574  0.48799654     0.98400
O1292       O  0.98463615  0.80496544  0.51544322    -0.62800
O1293       O  0.92976571  0.80767143  0.62830585    -0.57600
O1294       O  0.94701702  0.80833169  0.53464706    -0.94300
O1295       O  0.92137958  0.80857784  0.56868664    -0.92700
O1296       O  0.98206284  0.80697894  0.63837040    -0.93000
O1297       O  0.01322033  0.80542131  0.59909189    -0.91800
C1298       C  0.93096419  0.81602274  0.54806891     1.17200
H1299       H  0.95127286  0.77511521  0.64628497     0.33200
H1300       H  0.00950605  0.77126235  0.56182880     0.44000
H1301       H  0.91829644  0.77589912  0.53996301     0.37600
H1302       H  0.95256369  0.71163307  0.58026223     0.34000
H1303       H  0.03485553  0.77976097  0.63458965     0.25800
H1304       H  0.00592775  0.70203730  0.53602830     0.31800
H1305       H  0.94222254  0.71522639  0.50506169     0.37700
H1306       H  0.99224931  0.80656702  0.65424815     0.32100
H1307       H  0.93968507  0.81666978  0.61892534     0.31000
H1308       H  0.88337499  0.79866846  0.59930673     0.32700
H1309       H  0.88514928  0.75581535  0.54281995     0.31700
H1310       H  0.01109441  0.80632651  0.57917143     0.35700
H1311       H  0.00037260  0.80475073  0.52184754     0.28400
H1312       H  0.94397922  0.70946197  0.66715049     0.32600
H1313       H  0.89520384  0.70752933  0.54480576     0.35500
H1314       H  0.91482780  0.81366757  0.62801041     0.28100
H1315       H  0.98540283  0.80207830  0.49577258     0.40900
H1316       H  0.02923891  0.72900329  0.60169881     0.31000
H1317       H  0.03319218  0.76120383  0.61792124     0.38600
H1318       H  0.88331369  0.74521076  0.57053036     0.30500
H1319       H  0.98001102  0.70375332  0.53107610     0.30500
H1320       H  0.92888579  0.70388568  0.64218518     0.30800
Zr1321     Zr  0.71409214  0.52788965  0.50166810     2.17500
O1322       O  0.73592831  0.55056755  0.52755155    -0.51600
O1323       O  0.69124289  0.52137729  0.54146875    -0.74800
O1324       O  0.69569660  0.55844810  0.50420257    -0.81500
O1325       O  0.75958901  0.49135745  0.51066807    -0.83300
O1326       O  0.67141714  0.55979580  0.46868373    -0.78900
O1327       O  0.74657206  0.51869302  0.52824635    -0.90600
O1328       O  0.66667727  0.49861143  0.53052317    -0.76500
O1329       O  0.67780407  0.52267929  0.48315476    -0.86000
O1330       O  0.70870921  0.49484218  0.50187544    -0.85700
O1331       O  0.71546190  0.54120032  0.45682489    -0.72400
O1332       O  0.74298829  0.51462679  0.47369558    -0.84600
Zr1333     Zr  0.70215222  0.48919738  0.40967112     2.26400
Zr1334     Zr  0.67938479  0.53464466  0.43782258     2.06300
Zr1335     Zr  0.73680847  0.48160832  0.47293187     2.10000
Zr1336     Zr  0.67245938  0.48990898  0.48332868     1.78800
O1337       O  0.77542990  0.47421998  0.46103084    -0.93400
O1338       O  0.63379964  0.50083430  0.48370740    -0.41200
O1339       O  0.70047527  0.47624527  0.45463644    -0.77800
O1340       O  0.67247692  0.50168244  0.43781544    -0.96500
O1341       O  0.70802175  0.52207264  0.40927937    -0.89800
O1342       O  0.73858310  0.49427910  0.42812790    -0.92700
C1343       C  0.67509036  0.51027214  0.54743021     1.01100
C1344       C  0.76052532  0.50508949  0.52729567     1.14000
C1345       C  0.67993071  0.56631554  0.49057662     1.04800
O1346       O  0.64017267  0.54399050  0.43845711    -0.94800
O1347       O  0.65796743  0.52734917  0.39771929    -0.90600
O1348       O  0.66959483  0.49890212  0.38320221    -0.83700
C1349       C  0.65655752  0.51312260  0.38211083     1.11400
O1350       O  0.76459205  0.55445605  0.44569797    -0.96800
Zr1351     Zr  0.74393329  0.52737832  0.42894420     1.88900
O1352       O  0.72832835  0.49506797  0.37229084    -0.73400
O1353       O  0.68771082  0.56173142  0.40975991    -0.52700
O1354       O  0.73985053  0.55392284  0.39839011    -0.97400
O1355       O  0.78387346  0.52157995  0.43515537    -0.54600
O1356       O  0.75433975  0.51667486  0.38418697    -0.74000
C1357       C  0.74579081  0.50503097  0.36737548     0.98400
O1358       O  0.69032365  0.46627655  0.37578813    -0.62800
O1359       O  0.73523729  0.45614058  0.50567199    -0.57600
O1360       O  0.71024768  0.45593705  0.41413095    -0.94300
O1361       O  0.73488195  0.45188733  0.44881504    -0.92700
O1362       O  0.67233282  0.46089023  0.50898359    -0.93000
O1363       O  0.64797241  0.46530590  0.46649309    -0.91800
C1364       C  0.72315215  0.44572453  0.42880858     1.17200
H1365       H  0.70996870  0.48989481  0.52004238     0.33200
H1366       H  0.65778526  0.49884048  0.43072734     0.44000
H1367       H  0.75007236  0.48791991  0.41780456     0.37600
H1368       H  0.71797292  0.55451572  0.45789483     0.34000
H1369       H  0.62675271  0.49423266  0.49915718     0.25800
H1370       H  0.67304924  0.56797664  0.40740971     0.31800
H1371       H  0.73216600  0.54896888  0.38205949     0.37700
H1372       H  0.68494416  0.46204727  0.52195138     0.32100
H1373       H  0.75047462  0.45066865  0.50544520     0.31000
H1374       H  0.78105869  0.46661993  0.47637021     0.32700
H1375       H  0.79123534  0.52763090  0.41943959     0.31700
H1376       H  0.65117279  0.46461929  0.44676233     0.35700
H1377       H  0.67423887  0.46384685  0.37928443     0.28400
H1378       H  0.72566045  0.55551955  0.54163838     0.32600
H1379       H  0.77403495  0.55872068  0.43036182     0.35500
H1380       H  0.73401731  0.46216194  0.52372580     0.28100
H1381       H  0.69078459  0.47277928  0.35804563     0.40900
H1382       H  0.63224925  0.53349011  0.44727081     0.31000
H1383       H  0.63467189  0.51398794  0.48977441     0.38600
H1384       H  0.78573663  0.50805385  0.43184522     0.30500
H1385       H  0.69630433  0.57025676  0.42171664     0.30500
H1386       H  0.73858120  0.56111051  0.51498150     0.30800
Zr1387     Zr  0.71998377  0.23072733  0.29028592     2.17500
O1388       O  0.74557038  0.20741739  0.27181936    -0.51600
O1389       O  0.70073196  0.23699158  0.24800814    -0.74800
O1390       O  0.70020152  0.20135151  0.28211879    -0.81500
O1391       O  0.76754601  0.26572105  0.28796552    -0.83300
O1392       O  0.67423083  0.19923764  0.31548190    -0.78900
O1393       O  0.75355741  0.24029776  0.26612181    -0.90600
O1394       O  0.67377192  0.25842822  0.25702406    -0.76500
O1395       O  0.68230449  0.23748741  0.30278660    -0.86000
O1396       O  0.71661620  0.26391160  0.29004093    -0.85700
O1397       O  0.71516347  0.21696589  0.33434699    -0.72400
O1398       O  0.74652168  0.24237637  0.32273563    -0.84600
Zr1399     Zr  0.70011519  0.26864494  0.38031974     2.26400
Zr1400     Zr  0.67761151  0.22478530  0.34725601     2.06300
Zr1401     Zr  0.74220448  0.27558839  0.32350575     2.10000
Zr1402     Zr  0.67914418  0.27047196  0.30276056     1.78800
O1403       O  0.77995231  0.28051999  0.34094079    -0.93400
O1404       O  0.63864029  0.26673381  0.29997181    -0.41200
O1405       O  0.70449915  0.28253665  0.33622084    -0.77800
O1406       O  0.67330063  0.25796278  0.34721052    -0.96500
O1407       O  0.70379845  0.23560468  0.38050900    -0.89800
O1408       O  0.73785153  0.26233274  0.36773970    -0.92700
C1409       C  0.68378638  0.24691552  0.24115280     1.01100
C1410       C  0.76842568  0.25302326  0.26958592     1.14000
C1411       C  0.68380414  0.19303956  0.29392415     1.04800
O1412       O  0.63837834  0.22025677  0.33523488    -0.94800
O1413       O  0.65282839  0.23249778  0.38460468    -0.90600
O1414       O  0.66510848  0.26002971  0.40207078    -0.83700
C1415       C  0.65111280  0.24646985  0.40075804     1.11400
O1416       O  0.76545986  0.20379014  0.35159594    -0.96800
Zr1417     Zr  0.74126303  0.22916989  0.36673787     1.88900
O1418       O  0.72130060  0.26187304  0.42163434    -0.73400
O1419       O  0.67802081  0.19725365  0.37619539    -0.52700
O1420       O  0.73397186  0.20002025  0.39053732    -0.97400
O1421       O  0.78085938  0.23641607  0.37325033    -0.54600
O1422       O  0.74432469  0.23723494  0.41403179    -0.74000
C1423       C  0.73608587  0.24996772  0.42927806     0.98400
O1424       O  0.67853955  0.28927822  0.40993930    -0.62800
O1425       O  0.74533977  0.30140462  0.29155092    -0.57600
O1426       O  0.71368199  0.30064664  0.38122173    -0.94300
O1427       O  0.74036845  0.30482955  0.34906309    -0.92700
O1428       O  0.68828242  0.29701207  0.27402595    -0.93000
O1429       O  0.65804805  0.29847175  0.31419783    -0.91800
C1430       C  0.72814497  0.31077024  0.36878700     1.17200
H1431       H  0.71991250  0.26883277  0.27222473     0.33200
H1432       H  0.65822365  0.26143886  0.35226900     0.44000
H1433       H  0.74828739  0.26804649  0.38023187     0.37600
H1434       H  0.71699875  0.20358684  0.33330285     0.34000
H1435       H  0.63405368  0.27442514  0.28422471     0.25800
H1436       H  0.66318988  0.19138257  0.37328063     0.31800
H1437       H  0.72184809  0.20299176  0.40357615     0.37700
H1438       H  0.67558701  0.29792783  0.26112864     0.32100
H1439       H  0.76127667  0.30520870  0.29247036     0.31000
H1440       H  0.78701089  0.28920320  0.32785503     0.32700
H1441       H  0.78117299  0.24845810  0.38310341     0.31700
H1442       H  0.66180447  0.30096660  0.33347289     0.35700
H1443       H  0.68944774  0.29519453  0.42244518     0.28400
H1444       H  0.74022192  0.20503347  0.25307610     0.32600
H1445       H  0.77476322  0.20046498  0.36754465     0.35500
H1446       H  0.74366393  0.29583012  0.27324481     0.28100
H1447       H  0.67301706  0.29948857  0.39816890     0.40900
H1448       H  0.63193603  0.23297368  0.33477683     0.31000
H1449       H  0.63644017  0.25370778  0.29385017     0.38600
H1450       H  0.78648068  0.23943397  0.35483361     0.30500
H1451       H  0.68877288  0.18862514  0.36742068     0.30500
H1452       H  0.74252358  0.19575948  0.28191139     0.30800
Zr1453     Zr  0.58688034  0.52866990  0.79248761     2.17500
O1454       O  0.56565629  0.55061605  0.76473220    -0.51600
O1455       O  0.60736304  0.52092828  0.75097991    -0.74800
O1456       O  0.60490992  0.55936657  0.78905839    -0.81500
O1457       O  0.53826468  0.49349019  0.78977246    -0.83300
O1458       O  0.63039165  0.56135485  0.82311650    -0.78900
O1459       O  0.55109184  0.52064514  0.77178332    -0.90600
O1460       O  0.63155843  0.49741644  0.75988380    -0.76500
O1461       O  0.62395404  0.52222290  0.80743867    -0.86000
O1462       O  0.59038282  0.49551182  0.79253068    -0.85700
O1463       O  0.58887116  0.54233084  0.83715252    -0.72400
O1464       O  0.55938347  0.51700425  0.82376745    -0.84600
Zr1465     Zr  0.60235904  0.49067492  0.88462920     2.26400
Zr1466     Zr  0.62579438  0.53474844  0.85256184     2.06300
Zr1467     Zr  0.56368692  0.48379899  0.82472286     2.10000
Zr1468     Zr  0.62728766  0.48918395  0.80764852     1.78800
O1469       O  0.52588534  0.47911975  0.84204427    -0.93400
O1470       O  0.66672029  0.49798516  0.80500141    -0.41200
O1471       O  0.60076468  0.47698233  0.83989463    -0.77800
O1472       O  0.63017859  0.50151215  0.85266097    -0.96500
O1473       O  0.59871142  0.52374619  0.88465014    -0.89800
O1474       O  0.56538277  0.49681542  0.86932247    -0.92700
C1475       C  0.62275908  0.50940660  0.74375019     1.01100
C1476       C  0.53666714  0.50741024  0.77365329     1.14000
C1477       C  0.62051024  0.56794031  0.80208504     1.04800
O1478       O  0.66500254  0.54264256  0.84523296    -0.94800
O1479       O  0.65069338  0.52557103  0.88870662    -0.90600
O1480       O  0.63640363  0.49948200  0.90855615    -0.83700
C1481       C  0.65145110  0.51211656  0.90576057     1.11400
O1482       O  0.54055437  0.55767908  0.85621329    -0.96800
Zr1483     Zr  0.56190825  0.52993564  0.86848999     1.88900
O1484       O  0.57841326  0.49666441  0.92442776    -0.73400
O1485       O  0.62132724  0.56109135  0.88339422    -0.52700
O1486       O  0.57084828  0.55586539  0.89868786    -0.97400
O1487       O  0.52151487  0.52474820  0.86762994    -0.54600
O1488       O  0.55351616  0.51934993  0.91390154    -0.74000
C1489       C  0.56175276  0.50732336  0.93032819     0.98400
O1490       O  0.62252627  0.47028553  0.91591247    -0.62800
O1491       O  0.56096168  0.45840880  0.79185620    -0.57600
O1492       O  0.58876601  0.45860948  0.88423516    -0.94300
O1493       O  0.56475226  0.45430763  0.84908648    -0.92700
O1494       O  0.62100767  0.46028484  0.78275561    -0.93000
O1495       O  0.65182785  0.46367163  0.82115486    -0.91800
C1496       C  0.57550257  0.44842111  0.86999002     1.17200
H1497       H  0.58772110  0.49041746  0.77463697     0.33200
H1498       H  0.64497821  0.49793386  0.85842338     0.44000
H1499       H  0.55424327  0.49093248  0.88070266     0.37600
H1500       H  0.58681687  0.55567936  0.83633368     0.34000
H1501       H  0.67364168  0.48877697  0.79257265     0.25800
H1502       H  0.63653272  0.56655872  0.88480852     0.31800
H1503       H  0.55773756  0.55705685  0.91090601     0.37700
H1504       H  0.60947870  0.45359298  0.79344551     0.32100
H1505       H  0.54495647  0.45476950  0.79201588     0.31000
H1506       H  0.52005187  0.46828833  0.83173818     0.32700
H1507       H  0.51935060  0.51232564  0.87597829     0.31700
H1508       H  0.65078571  0.46335360  0.84123746     0.35700
H1509       H  0.61102344  0.46494011  0.92815750     0.28400
H1510       H  0.57564445  0.55392169  0.74940917     0.32600
H1511       H  0.53064318  0.56027105  0.87192544     0.35500
H1512       H  0.56324657  0.46416305  0.77378880     0.28100
H1513       H  0.62795993  0.45966193  0.90484880     0.40900
H1514       H  0.66857914  0.53747058  0.82707794     0.31000
H1515       H  0.66686035  0.50980055  0.79461670     0.38600
H1516       H  0.51782010  0.52286328  0.84819061     0.30500
H1517       H  0.61263249  0.57040452  0.87296447     0.30500
H1518       H  0.56421894  0.56216392  0.77565618     0.30800
Zr1519     Zr  0.59341410  0.23197091  0.99886821     2.17500
O1520       O  0.57219191  0.20735489  0.02141175    -0.51600
O1521       O  0.61489021  0.23903809  0.03949217    -0.74800
O1522       O  0.61456373  0.20261990  0.00234978    -0.81500
O1523       O  0.54234957  0.26359774  0.00393794    -0.83300
O1524       O  0.63915459  0.20209784  0.96728150    -0.78900
O1525       O  0.55998565  0.23937256  0.02498806    -0.90600
O1526       O  0.63755379  0.26359351  0.03102296    -0.76500
O1527       O  0.62979358  0.24089943  0.98413851    -0.86000
O1528       O  0.59421080  0.26530759  0.00008493    -0.85700
O1529       O  0.59621291  0.21918028  0.95384603    -0.72400
O1530       O  0.56464103  0.24272353  0.96843189    -0.84600
Zr1531     Zr  0.60631893  0.27218933  0.90875962     2.26400
Zr1532     Zr  0.63248495  0.22887014  0.93896652     2.06300
Zr1533     Zr  0.56639025  0.27610098  0.96873133     2.10000
Zr1534     Zr  0.63044099  0.27409421  0.98509581     1.78800
O1535       O  0.52845688  0.28123896  0.95218883    -0.93400
O1536       O  0.67117620  0.27218119  0.98804154    -0.41200
O1537       O  0.60284199  0.28510345  0.95372354    -0.77800
O1538       O  0.63514286  0.26220603  0.94003636    -0.96500
O1539       O  0.60452628  0.23906226  0.90758919    -0.89800
O1540       O  0.56956244  0.26399567  0.92356482    -0.92700
C1541       C  0.63003181  0.25078938  0.04663793     1.01100
C1542       C  0.54359068  0.25079091  0.02207471     1.14000
C1543       C  0.63037572  0.19488343  0.98857813     1.04800
O1544       O  0.67227555  0.22400875  0.94706568    -0.94800
O1545       O  0.65581663  0.23893237  0.90212414    -0.90600
O1546       O  0.64256557  0.26662747  0.88707385    -0.83700
C1547       C  0.65732904  0.25359589  0.88744366     1.11400
O1548       O  0.54844317  0.20263429  0.93780420    -0.96800
Zr1549     Zr  0.56815075  0.23073563  0.92329744     1.88900
O1550       O  0.58398414  0.26471154  0.86847031    -0.73400
O1551       O  0.63024681  0.20236740  0.90800281    -0.52700
O1552       O  0.57711727  0.20469237  0.89327097    -0.97400
O1553       O  0.52754121  0.23428940  0.92455240    -0.54600
O1554       O  0.55963911  0.24124370  0.87776265    -0.74000
C1555       C  0.56790723  0.25366494  0.86199448     0.98400
O1556       O  0.61673066  0.29339493  0.87202086    -0.62800
O1557       O  0.56251762  0.29984712  0.00386082    -0.57600
O1558       O  0.59423986  0.30444252  0.91457343    -0.94300
O1559       O  0.56660795  0.30644221  0.94608869    -0.92700
O1560       O  0.62020927  0.30038730  0.01391885    -0.93000
O1561       O  0.64970583  0.30242906  0.97094314    -0.91800
C1562       C  0.57931275  0.31360182  0.92775846     1.17200
H1563       H  0.59124558  0.26992206  0.01822672     0.33200
H1564       H  0.64990871  0.26641627  0.93499251     0.44000
H1565       H  0.55814852  0.26949798  0.91215791     0.37600
H1566       H  0.59521899  0.20572281  0.95428411     0.34000
H1567       H  0.67555172  0.28189268  0.00135907     0.25800
H1568       H  0.62906038  0.20793448  0.88964760     0.31800
H1569       H  0.58565012  0.21024327  0.87803183     0.37700
H1570       H  0.63343530  0.30243493  0.02571796     0.32100
H1571       H  0.57455790  0.30897654  0.00002574     0.31000
H1572       H  0.52125164  0.28897929  0.96639260     0.32700
H1573       H  0.52215596  0.22884972  0.90722542     0.31700
H1574       H  0.65055021  0.30145542  0.95088963     0.35700
H1575       H  0.62411716  0.30426558  0.88065505     0.28400
H1576       H  0.58174788  0.20301169  0.03659197     0.32600
H1577       H  0.54073927  0.19781124  0.92140369     0.35500
H1578       H  0.54847213  0.30648257  0.99927985     0.28100
H1579       H  0.60253388  0.29834810  0.86451188     0.40900
H1580       H  0.67617593  0.23322556  0.96130583     0.31000
H1581       H  0.67417102  0.26026187  0.99748862     0.38600
H1582       H  0.52492481  0.24784517  0.92262954     0.30500
H1583       H  0.64541196  0.19678357  0.90845427     0.30500
H1584       H  0.57179148  0.19682982  0.00836100     0.30800
Zr1585     Zr  0.09616734  0.02622143  0.78036365     2.17500
O1586       O  0.07488115  0.05088633  0.75796031    -0.51600
O1587       O  0.11880072  0.01992629  0.74039136    -0.74800
O1588       O  0.11632480  0.05571815  0.77824887    -0.81500
O1589       O  0.04984716  0.99042319  0.76870787    -0.83300
O1590       O  0.13996208  0.05740853  0.81441582    -0.78900
O1591       O  0.06453718  0.01738287  0.75213080    -0.90600
O1592       O  0.14367489  0.99708598  0.75044617    -0.76500
O1593       O  0.13232019  0.01967149  0.79812172    -0.86000
O1594       O  0.10023003  0.99319505  0.77883993    -0.85700
O1595       O  0.09582773  0.03895035  0.82552861    -0.72400
O1596       O  0.06670353  0.01377465  0.80804334    -0.84600
Zr1597     Zr  0.10697871  0.98643098  0.87110290     2.26400
Zr1598     Zr  0.13187362  0.03129074  0.84366340     2.06300
Zr1599     Zr  0.07163684  0.98069073  0.80762637     2.10000
Zr1600     Zr  0.13624243  0.98675984  0.79687722     1.78800
O1601       O  0.03237648  0.97471438  0.81774117    -0.93400
O1602       O  0.17601902  0.99448545  0.79726584    -0.41200
O1603       O  0.10778138  0.97386017  0.82579970    -0.77800
O1604       O  0.13676938  0.99820188  0.84262937    -0.96500
O1605       O  0.10283403  0.01939354  0.87227137    -0.89800
O1606       O  0.07082729  0.99265752  0.85308181    -0.92700
C1607       C  0.13521132  0.00920634  0.73415967     1.01100
C1608       C  0.05017429  0.00402726  0.75182270     1.14000
C1609       C  0.13171704  0.06375397  0.79223370     1.04800
O1610       O  0.17227874  0.03524503  0.83975415    -0.94800
O1611       O  0.15080967  0.02342397  0.88547804    -0.90600
O1612       O  0.13981201  0.99418348  0.89740271    -0.83700
C1613       C  0.15225111  0.00861931  0.89990626     1.11400
O1614       O  0.04196668  0.04939938  0.83484865    -0.96800
Zr1615     Zr  0.06698952  0.02575730  0.85335351     1.88900
O1616       O  0.08281483  0.99329673  0.91050615    -0.73400
O1617       O  0.12678394  0.05936216  0.87089602    -0.52700
O1618       O  0.07215292  0.05507743  0.87771387    -0.97400
O1619       O  0.02739239  0.01748860  0.85578921    -0.54600
O1620       O  0.06085739  0.01800438  0.90039856    -0.74000
C1621       C  0.06788460  0.00550822  0.91687595     0.98400
O1622       O  0.12554098  0.96508859  0.90254001    -0.62800
O1623       O  0.07546452  0.95471879  0.77598687    -0.57600
O1624       O  0.09373240  0.95437733  0.86767210    -0.94300
O1625       O  0.07009901  0.95130335  0.83185027    -0.92700
O1626       O  0.13158341  0.95823638  0.77054321    -0.93000
O1627       O  0.15919680  0.96081137  0.81243428    -0.91800
C1628       C  0.08032598  0.94482424  0.85271231     1.17200
H1629       H  0.09878235  0.98856406  0.76047733     0.33200
H1630       H  0.15133312  0.99488802  0.84972564     0.44000
H1631       H  0.05927402  0.98662392  0.86361736     0.37600
H1632       H  0.09389194  0.05234185  0.82493042     0.34000
H1633       H  0.18252010  0.98715679  0.78212468     0.25800
H1634       H  0.12136476  0.05482299  0.88872446     0.31800
H1635       H  0.06126356  0.05468894  0.89288750     0.37700
H1636       H  0.14350477  0.95873626  0.75656204     0.32100
H1637       H  0.06044922  0.94885197  0.77550541     0.31000
H1638       H  0.02809831  0.96445627  0.80528258     0.32700
H1639       H  0.02628192  0.00788474  0.87015951     0.31700
H1640       H  0.15637782  0.96014690  0.83224892     0.35700
H1641       H  0.11346719  0.95896601  0.91306361     0.28400
H1642       H  0.08468164  0.05573575  0.74333504     0.32600
H1643       H  0.03356853  0.05439931  0.85061614     0.35500
H1644       H  0.07728800  0.96043423  0.75782798     0.28100
H1645       H  0.13212999  0.95509413  0.89114623     0.40900
H1646       H  0.17849583  0.02247321  0.84094126     0.31000
H1647       H  0.17674170  0.00757600  0.79094555     0.38600
H1648       H  0.02443086  0.01063006  0.83867686     0.30500
H1649       H  0.14219122  0.06385499  0.87452021     0.30500
H1650       H  0.07381132  0.06114944  0.77139852     0.30800
Zr1651     Zr  0.08867746  0.73347234  0.99726053     2.17500
O1652       O  0.06618629  0.71100085  0.02252811    -0.51600
O1653       O  0.11131684  0.74038892  0.03716776    -0.74800
O1654       O  0.10800189  0.70331539  0.00200793    -0.81500
O1655       O  0.04320594  0.77121493  0.00374921    -0.83300
O1656       O  0.13411606  0.70209026  0.96848244    -0.78900
O1657       O  0.05592126  0.74413940  0.02223427    -0.90600
O1658       O  0.13656815  0.76272422  0.02578376    -0.76500
O1659       O  0.12519371  0.73877559  0.97969459    -0.86000
O1660       O  0.09353492  0.76656072  0.99626631    -0.85700
O1661       O  0.08823816  0.71893503  0.95322057    -0.72400
O1662       O  0.06027235  0.74585268  0.96766433    -0.84600
Zr1663     Zr  0.10194875  0.76961352  0.90403675     2.26400
Zr1664     Zr  0.12457596  0.72536713  0.93512995     2.06300
Zr1665     Zr  0.06615038  0.77889379  0.96543729     2.10000
Zr1666     Zr  0.12998181  0.77164161  0.97873081     1.78800
O1667       O  0.02681037  0.78496180  0.95565139    -0.93400
O1668       O  0.16948125  0.76299781  0.97925692    -0.41200
O1669       O  0.10277436  0.78437892  0.94786280    -0.77800
O1670       O  0.13073485  0.75838002  0.93420054    -0.96500
O1671       O  0.09655521  0.73674465  0.90476090    -0.89800
O1672       O  0.06536242  0.76483622  0.92146279    -0.92700
C1673       C  0.12785694  0.75119409  0.04270263     1.01100
C1674       C  0.04221567  0.75795044  0.02102327     1.14000
C1675       C  0.12491440  0.69572758  0.99006188     1.04800
O1676       O  0.16276043  0.71354398  0.93253976    -0.94800
O1677       O  0.14762635  0.73310874  0.89649117    -0.90600
O1678       O  0.13429312  0.76004513  0.87846500    -0.83700
C1679       C  0.14835389  0.74661147  0.87954113     1.11400
O1680       O  0.03517282  0.70917233  0.94448765    -0.96800
Zr1681     Zr  0.06028615  0.73184530  0.92358490     1.88900
O1682       O  0.07858815  0.76212673  0.86482492    -0.73400
O1683       O  0.11264063  0.69824866  0.90909857    -0.52700
O1684       O  0.06444191  0.70172852  0.90114373    -0.97400
O1685       O  0.02071047  0.73980513  0.91859450    -0.54600
O1686       O  0.05444809  0.73899715  0.87613885    -0.74000
C1687       C  0.06274271  0.75064492  0.85918481     0.98400
O1688       O  0.12318230  0.78975640  0.87345974    -0.62800
O1689       O  0.07042678  0.80611617  0.99471295    -0.57600
O1690       O  0.08694121  0.80099247  0.90096234    -0.94300
O1691       O  0.06483644  0.80684865  0.93745160    -0.92700
O1692       O  0.12491633  0.80114291  0.00262014    -0.93000
O1693       O  0.15516393  0.79613033  0.96318142    -0.91800
C1694       C  0.07396213  0.81157262  0.91484687     1.17200
H1695       H  0.09187694  0.77191964  0.01416988     0.33200
H1696       H  0.14548130  0.76131435  0.92738601     0.44000
H1697       H  0.05425041  0.77076911  0.91010603     0.37600
H1698       H  0.08593072  0.70562496  0.95493038     0.34000
H1699       H  0.17515130  0.76736029  0.99708404     0.25800
H1700       H  0.11409288  0.70210271  0.88985407     0.31800
H1701       H  0.05280943  0.70159342  0.88679401     0.37700
H1702       H  0.12540104  0.79799940  0.02219877     0.32100
H1703       H  0.05616521  0.81304813  0.99281275     0.31000
H1704       H  0.02353379  0.79693570  0.96488070     0.32700
H1705       H  0.01601711  0.73412575  0.90112849     0.31700
H1706       H  0.15244882  0.79691683  0.94335365     0.35700
H1707       H  0.11222058  0.79499712  0.86043220     0.28400
H1708       H  0.07593755  0.70653605  0.03745272     0.32600
H1709       H  0.02620910  0.70383416  0.92941975     0.35500
H1710       H  0.07017753  0.80123484  0.01351151     0.28100
H1711       H  0.12821516  0.80045520  0.88465959     0.40900
H1712       H  0.17196435  0.72309474  0.94188831     0.31000
H1713       H  0.16949989  0.74922475  0.98067652     0.38600
H1714       H  0.02034255  0.75339782  0.91519048     0.30500
H1715       H  0.12476330  0.68901792  0.91176970     0.30500
H1716       H  0.06443669  0.70015799  0.01021540     0.30800
Zr1717     Zr  0.22240065  0.02863029  0.48801509     2.17500
O1718       O  0.24324198  0.05362050  0.51026143    -0.51600
O1719       O  0.20456838  0.02149681  0.53114907    -0.74800
O1720       O  0.20086513  0.05762930  0.49170104    -0.81500
O1721       O  0.27400239  0.99666945  0.49016246    -0.83300
O1722       O  0.17235329  0.05641150  0.46118225    -0.78900
O1723       O  0.25874524  0.02283977  0.50880360    -0.90600
O1724       O  0.18171094  0.99650045  0.52521652    -0.76500
O1725       O  0.18534920  0.01938579  0.47639589    -0.86000
O1726       O  0.22176175  0.99538948  0.49031770    -0.85700
O1727       O  0.21650428  0.04081061  0.44315733    -0.72400
O1728       O  0.24962637  0.01772773  0.45582225    -0.84600
Zr1729     Zr  0.20574246  0.98702258  0.39993434     2.26400
Zr1730     Zr  0.17964809  0.03046301  0.43116218     2.06300
Zr1731     Zr  0.24808394  0.98437306  0.45713823     2.10000
Zr1732     Zr  0.18482407  0.98632930  0.47818752     1.78800
O1733       O  0.28533374  0.97967013  0.43811105    -0.93400
O1734       O  0.14507374  0.99123424  0.48707954    -0.41200
O1735       O  0.21103607  0.97512094  0.44508951    -0.77800
O1736       O  0.17814037  0.99708482  0.43279851    -0.96500
O1737       O  0.20635334  0.02021494  0.39804124    -0.89800
O1738       O  0.24279521  0.99593578  0.41206620    -0.92700
C1739       C  0.19039551  0.00945801  0.53985676     1.01100
C1740       C  0.27442410  0.01068023  0.50632969     1.14000
C1741       C  0.18294222  0.06420225  0.48078749     1.04800
O1742       O  0.13985017  0.03344843  0.44106589    -0.94800
O1743       O  0.15540911  0.02028042  0.39490117    -0.90600
O1744       O  0.17039537  0.99367638  0.37746852    -0.83700
C1745       C  0.15518274  0.00620989  0.37889407     1.11400
O1746       O  0.26413169  0.05689223  0.42496327    -0.96800
Zr1747     Zr  0.24323194  0.02923172  0.41101535     1.88900
O1748       O  0.22651263  0.99360658  0.35781850    -0.73400
O1749       O  0.17969333  0.05766873  0.40157530    -0.52700
O1750       O  0.23229063  0.05594423  0.38344301    -0.97400
O1751       O  0.28357542  0.02519351  0.40551320    -0.54600
O1752       O  0.24769203  0.01943181  0.36455580    -0.74000
C1753       C  0.24048378  0.00607672  0.34964774     0.98400
O1754       O  0.19071721  0.96143311  0.37257122    -0.62800
O1755       O  0.25312610  0.96027457  0.49152748    -0.57600
O1756       O  0.21985810  0.95525968  0.40320175    -0.94300
O1757       O  0.24741004  0.95401051  0.43496501    -0.92700
O1758       O  0.19631963  0.95833502  0.50246968    -0.93000
O1759       O  0.16062491  0.96017386  0.46635548    -0.91800
C1760       C  0.23509952  0.94651890  0.41652148     1.17200
H1761       H  0.22565388  0.99109661  0.50830209     0.33200
H1762       H  0.16339169  0.99261887  0.42798530     0.44000
H1763       H  0.25373185  0.99050545  0.39993995     0.37600
H1764       H  0.21727885  0.05428293  0.44328429     0.34000
H1765       H  0.14183780  0.98379066  0.50356421     0.25800
H1766       H  0.16413419  0.06242649  0.40246286     0.31800
H1767       H  0.24345639  0.05648854  0.36857536     0.37700
H1768       H  0.20133850  0.94958910  0.48810564     0.32100
H1769       H  0.26873142  0.95592788  0.48897082     0.47000
H1770       H  0.29308242  0.99175754  0.44065735     0.32700
H1771       H  0.28739111  0.03218222  0.38879889     0.31700
H1772       H  0.16586956  0.95616322  0.44816634     0.35700
H1773       H  0.17542090  0.95895389  0.37952028     0.28400
H1774       H  0.23372388  0.05790358  0.52552983     0.32600
H1775       H  0.27172013  0.06151128  0.40838761     0.35500
H1776       H  0.25334244  0.96686337  0.50922793     0.28100
H1777       H  0.18861773  0.96641325  0.35397093     0.40900
H1778       H  0.13547057  0.02116546  0.44852325     0.31000
H1779       H  0.14399452  0.00434703  0.49328000     0.38600
H1780       H  0.28556447  0.01195828  0.40033451     0.30500
H1781       H  0.18867390  0.06716742  0.41134396     0.30500
H1782       H  0.24339390  0.06409548  0.49716776     0.30800
Zr1783     Zr  0.21763578  0.73166031  0.28519108     2.17500
O1784       O  0.24075127  0.70686420  0.26588360    -0.51600
O1785       O  0.19854887  0.73983940  0.24331109    -0.74800
O1786       O  0.19706119  0.70218193  0.28000504    -0.81500
O1787       O  0.26379984  0.76803114  0.27663680    -0.83300
O1788       O  0.17410871  0.69944516  0.31675151    -0.78900
O1789       O  0.25010002  0.74093017  0.25895184    -0.90600
O1790       O  0.17346684  0.76271912  0.25296084    -0.76500
O1791       O  0.18069865  0.73885875  0.30009416    -0.86000
O1792       O  0.21501716  0.76488404  0.28523208    -0.85700
O1793       O  0.21500822  0.71838160  0.32975682    -0.72400
O1794       O  0.24605796  0.74316010  0.31555388    -0.84600
Zr1795     Zr  0.20313071  0.76992314  0.37679119     2.26400
Zr1796     Zr  0.17831527  0.72656467  0.34517337     2.06300
Zr1797     Zr  0.24230265  0.77641056  0.31667253     2.10000
Zr1798     Zr  0.17833838  0.77195898  0.30021997     1.78800
O1799       O  0.28202535  0.77900478  0.32736609    -0.93400
O1800       O  0.13820784  0.76636115  0.29601039    -0.41200
O1801       O  0.20535005  0.78380802  0.33223151    -0.77800
O1802       O  0.17475609  0.75977765  0.34519648    -0.96500
O1803       O  0.20628522  0.73688938  0.37652812    -0.89800
O1804       O  0.23999744  0.76330501  0.36120331    -0.92700
C1805       C  0.18311063  0.75136890  0.23650484     1.01100
C1806       C  0.26389110  0.75467652  0.25920553     1.14000
C1807       C  0.18270397  0.69332138  0.29463717     1.04800
O1808       O  0.13883885  0.72018093  0.33669982    -0.94800
O1809       O  0.15395517  0.73576076  0.38183498    -0.90600
O1810       O  0.16960221  0.76107847  0.40192761    -0.83700
C1811       C  0.15417139  0.74863884  0.39985101     1.11400
O1812       O  0.26773347  0.70691890  0.33995599    -0.96800
Zr1813     Zr  0.24298511  0.73019963  0.36006794     1.88900
O1814       O  0.22563131  0.76213055  0.41703667    -0.73400
O1815       O  0.18176432  0.70069657  0.37691444    -0.52700
O1816       O  0.23895997  0.70029421  0.38305729    -0.97400
O1817       O  0.28212521  0.73860322  0.36771220    -0.54600
O1818       O  0.24627689  0.73624484  0.40800424    -0.74000
C1819       C  0.23933054  0.74910089  0.42394129     0.98400
O1820       O  0.18137803  0.79145966  0.40474259    -0.62800
O1821       O  0.24179868  0.80340978  0.28671412    -0.57600
O1822       O  0.22005619  0.80075222  0.37972931    -0.94300
O1823       O  0.24462973  0.80447112  0.34496104    -0.92700
O1824       O  0.18689479  0.80024055  0.27491239    -0.93000
O1825       O  0.15395395  0.79755635  0.31370045    -0.91800
C1826       C  0.23462598  0.81030444  0.36655580     1.17200
H1827       H  0.21770889  0.76996816  0.26734221     0.33200
H1828       H  0.16006576  0.76357610  0.35130696     0.44000
H1829       H  0.25106077  0.76889019  0.37297865     0.37600
H1830       H  0.21665694  0.70503700  0.32869316     0.34000
H1831       H  0.13411169  0.77143198  0.27796640     0.25800
H1832       H  0.18145026  0.70648967  0.39519658     0.31800
H1833       H  0.23082415  0.69216325  0.37012243     0.37700
H1834       H  0.17561117  0.80061626  0.26015894     0.32100
H1835       H  0.22990474  0.81159581  0.29408887     0.31000
H1836       H  0.28734890  0.78971260  0.31644352     0.32700
H1837       H  0.28197199  0.74894292  0.38107030     0.31700
H1838       H  0.16348433  0.80561585  0.32527759     0.35700
H1839       H  0.19140837  0.79524283  0.41979872     0.28400
H1840       H  0.23231962  0.70197608  0.25006154     0.32600
H1841       H  0.27797780  0.70305823  0.35475004     0.35500
H1842       H  0.25595600  0.81010139  0.29065883     0.28100
H1843       H  0.17920911  0.80283744  0.39367065     0.40900
H1844       H  0.13684182  0.72214477  0.31693590     0.31000
H1845       H  0.13679952  0.75268934  0.29386725     0.38600
H1846       H  0.28699785  0.74445748  0.35049198     0.30500
H1847       H  0.16731396  0.69397568  0.37547128     0.30500
H1848       H  0.24050066  0.69667130  0.27945148     0.30800
Zr1849     Zr  0.85212195  0.24001639  0.65574179     2.17500
O1850       O  0.86889590  0.21885871  0.62256142    -0.51600
O1851       O  0.82692918  0.24637287  0.61754506    -0.74800
O1852       O  0.83644366  0.20857532  0.65656358    -0.81500
O1853       O  0.90150432  0.27366529  0.64749738    -0.83300
O1854       O  0.81469172  0.20483228  0.69395883    -0.78900
O1855       O  0.88706913  0.24626094  0.63222260    -0.90600
O1856       O  0.80033039  0.26708023  0.63052068    -0.76500
O1857       O  0.81614739  0.24594662  0.67430127    -0.86000
O1858       O  0.84745327  0.27300658  0.65418683    -0.85700
O1859       O  0.85424996  0.22739591  0.70100494    -0.72400
O1860       O  0.88169204  0.25259260  0.68358180    -0.84600
Zr1861     Zr  0.84129810  0.27976507  0.74660559     2.26400
Zr1862     Zr  0.81800195  0.23377797  0.71947938     2.06300
Zr1863     Zr  0.87650944  0.28556999  0.68224866     2.10000
Zr1864     Zr  0.81178184  0.27901217  0.67401441     1.78800
O1865       O  0.91502318  0.29652995  0.68637709    -0.93400
O1866       O  0.77178660  0.27379058  0.68053234    -0.41200
O1867       O  0.84069934  0.29239853  0.70140647    -0.77800
O1868       O  0.81188478  0.26687791  0.71905745    -0.96500
O1869       O  0.84644419  0.24687644  0.74805221    -0.89800
O1870       O  0.87748141  0.27413631  0.72792285    -0.92700
C1871       C  0.80887327  0.25573584  0.61337149     1.01100
C1872       C  0.90220641  0.25896107  0.63264101     1.14000
C1873       C  0.82339087  0.19888634  0.67171913     1.04800
O1874       O  0.77815257  0.22866073  0.71188712    -0.94800
O1875       O  0.79730738  0.24209703  0.75957978    -0.90600
O1876       O  0.81068790  0.26968847  0.77581045    -0.83700
C1877       C  0.79694009  0.25591622  0.77611011     1.11400
O1878       O  0.90757220  0.21708585  0.71273301    -0.96800
Zr1879     Zr  0.88245750  0.24133538  0.72939270     1.88900
O1880       O  0.86374248  0.27349626  0.78681323    -0.73400
O1881       O  0.82295031  0.20814479  0.75137634    -0.52700
O1882       O  0.87770979  0.21253772  0.75498342    -0.97400
O1883       O  0.92181023  0.25049310  0.73081458    -0.54600
O1884       O  0.88882252  0.25099948  0.77633346    -0.74000
C1885       C  0.88011298  0.26274721  0.79303224     0.98400
O1886       O  0.82068961  0.30574860  0.76675916    -0.62800
O1887       O  0.86930343  0.30894540  0.64748285    -0.57600
O1888       O  0.85941854  0.31008486  0.74874939    -0.94300
O1889       O  0.87972776  0.31343322  0.70985808    -0.92700
O1890       O  0.81445164  0.30444166  0.64142355    -0.93000
O1891       O  0.79291323  0.30712661  0.68984391    -0.91800
C1892       C  0.87231109  0.31933243  0.73279502     1.17200
H1893       H  0.84841653  0.27758508  0.63575423     0.33200
H1894       H  0.79737809  0.26989534  0.72660417     0.44000
H1895       H  0.88895725  0.28043532  0.73831333     0.37600
H1896       H  0.85719594  0.21419079  0.70059810     0.34000
H1897       H  0.76436293  0.28209523  0.66723114     0.25800
H1898       H  0.80949323  0.20023040  0.74894558     0.31800
H1899       H  0.88677073  0.21421055  0.77166918     0.37700
H1900       H  0.79914009  0.30574724  0.63389523     0.32100
H1901       H  0.85657985  0.31627925  0.65470953     0.31000
H1902       H  0.91694495  0.30567161  0.67148323     0.32700
H1903       H  0.92273082  0.26053910  0.74459982     0.31700
H1904       H  0.79101993  0.30524274  0.70964786     0.35700
H1905       H  0.80477540  0.30374353  0.76180370     0.28400
H1906       H  0.85651255  0.21486875  0.61046882     0.32600
H1907       H  0.91685992  0.21347028  0.72855399     0.35500
H1908       H  0.88226307  0.31753832  0.64846884     0.28100
H1909       H  0.82135831  0.30381007  0.78666892     0.40900
H1910       H  0.77658930  0.22752626  0.69191326     0.31000
H1911       H  0.76909362  0.26103919  0.67353731     0.38600
H1912       H  0.92440051  0.25691041  0.71328416     0.30500
H1913       H  0.83537874  0.20064057  0.74375698     0.30500
H1914       H  0.87328082  0.20750814  0.63268807     0.30800
Zr1915     Zr  0.85801939  0.02319053  0.62497347     2.17500
O1916       O  0.87668004  0.04179089  0.65990281    -0.51600
O1917       O  0.83381960  0.01698343  0.66458708    -0.74800
O1918       O  0.84476924  0.05525917  0.62558542    -0.81500
O1919       O  0.90952696  0.99126749  0.62280467    -0.83300
O1920       O  0.81830215  0.05884347  0.59282731    -0.78900
O1921       O  0.89447517  0.01602947  0.64499170    -0.90600
O1922       O  0.80805866  0.99511320  0.65322147    -0.76500
O1923       O  0.82096997  0.01736554  0.60910665    -0.86000
O1924       O  0.85362087  0.99018305  0.62529158    -0.85700
O1925       O  0.85708191  0.03692179  0.58001418    -0.72400
O1926       O  0.88578650  0.01176741  0.59366573    -0.84600
Zr1927     Zr  0.84239639  0.98557709  0.53257996     2.26400
Zr1928     Zr  0.81977844  0.03069950  0.56445499     2.06300
Zr1929     Zr  0.88076134  0.97876439  0.59358164     2.10000
Zr1930     Zr  0.81704624  0.98425323  0.60807101     1.78800
O1931       O  0.91809150  0.96528838  0.58978675    -0.93400
O1932       O  0.77657771  0.98893616  0.60772210    -0.41200
O1933       O  0.84412781  0.97171581  0.57702386    -0.77800
O1934       O  0.81467157  0.99745190  0.56378708    -0.96500
O1935       O  0.84671630  0.01869570  0.53274315    -0.89800
O1936       O  0.87938882  0.99126923  0.54853970    -0.92700
C1937       C  0.81652816  0.00687374  0.66994278     1.01100
C1938       C  0.91043163  0.00443432  0.64037433     1.14000
C1939       C  0.82998956  0.06492641  0.61297698     1.04800
O1940       O  0.78089730  0.03870964  0.57407021    -0.94800
O1941       O  0.79576923  0.02137299  0.52694553    -0.90600
O1942       O  0.81056944  0.99586909  0.50578086    -0.83700
C1943       C  0.79554410  0.00851700  0.50871509     1.11400
O1944       O  0.90773343  0.04996326  0.56263544    -0.96800
Zr1945     Zr  0.88375877  0.02415334  0.54851537     1.88900
O1946       O  0.86399749  0.99185910  0.49141120    -0.73400
O1947       O  0.82310581  0.05617102  0.53204678    -0.52700
O1948       O  0.87926240  0.05306570  0.52318834    -0.97400
O1949       O  0.92321820  0.01533889  0.54676303    -0.54600
O1950       O  0.88851692  0.01516471  0.50096475    -0.74000
C1951       C  0.87971325  0.00321723  0.48464238     0.98400
O1952       O  0.81693541  0.96332090  0.51139646    -0.62800
O1953       O  0.87437423  0.95517231  0.62831769    -0.57600
O1954       O  0.86079801  0.95519840  0.52710691    -0.94300
O1955       O  0.88435068  0.95261441  0.56308806    -0.92700
O1956       O  0.82376575  0.95657120  0.63548513    -0.93000
O1957       O  0.79528085  0.95762581  0.59224591    -0.91800
C1958       C  0.87587584  0.94651818  0.54084916     1.17200
H1959       H  0.85568747  0.98527568  0.64341416     0.33200
H1960       H  0.79983367  0.99421065  0.55747606     0.44000
H1961       H  0.89043162  0.98537010  0.53702216     0.37600
H1962       H  0.86006439  0.05016056  0.58038306     0.34000
H1963       H  0.77115202  0.98315396  0.62476408     0.25800
H1964       H  0.80827653  0.06235909  0.53246055     0.31800
H1965       H  0.86668202  0.05063700  0.51055667     0.37700
H1966       H  0.81070217  0.95582114  0.64784532     0.32100
H1967       H  0.87922222  0.94331202  0.61982704     0.31000
H1968       H  0.91793605  0.95430723  0.60196567     0.32700
H1969       H  0.92403374  0.00494029  0.53354190     0.31700
H1970       H  0.79779466  0.95731845  0.57235377     0.35700
H1971       H  0.82514395  0.95829796  0.49550022     0.28400
H1972       H  0.86461516  0.04795111  0.67040996     0.32600
H1973       H  0.91883037  0.05156447  0.54784597     0.35500
H1974       H  0.88585313  0.95776415  0.64235916     0.28100
H1975       H  0.81585928  0.95283412  0.52438075     0.40900
H1976       H  0.77976661  0.03880719  0.59415012     0.31000
H1977       H  0.77457280  0.00250186  0.61060469     0.38600
H1978       H  0.92624397  0.00945926  0.56459113     0.30500
H1979       H  0.83338445  0.06520773  0.54079655     0.30500
H1980       H  0.88436390  0.05200741  0.65010209     0.30800
Zr1981     Zr  0.95499318  0.24025270  0.12842553     2.17500
O1982       O  0.93488041  0.21789548  0.15675764    -0.51600
O1983       O  0.97688100  0.24677194  0.16947771    -0.74800
O1984       O  0.97238448  0.20941832  0.12890904    -0.81500
O1985       O  0.90610564  0.27469134  0.13511042    -0.83300
O1986       O  0.99787306  0.20718083  0.09493911    -0.78900
O1987       O  0.92034824  0.24778708  0.15216779    -0.90600
O1988       O  0.99961043  0.27133507  0.16104972    -0.76500
O1989       O  0.99183124  0.24750333  0.11319891    -0.86000
O1990       O  0.95773359  0.27339234  0.12996324    -0.85700
O1991       O  0.95681638  0.22743272  0.08313651    -0.72400
O1992       O  0.92664671  0.25174146  0.09800107    -0.84600
Zr1993     Zr  0.96967509  0.27999267  0.03798201     2.26400
Zr1994     Zr  0.99370820  0.23532555  0.06777238     2.06300
Zr1995     Zr  0.93038746  0.28491784  0.09868440     2.10000
Zr1996     Zr  0.99426371  0.28065818  0.11423588     1.78800
O1997       O  0.89113444  0.29118737  0.08858829    -0.93400
O1998       O  0.03415750  0.27471404  0.11993313    -0.41200
O1999       O  0.96708857  0.29298275  0.08307973    -0.77800
O2000       O  0.99765212  0.26863674  0.06923486    -0.96500
O2001       O  0.96626804  0.24688476  0.03661321    -0.89800
O2002       O  0.93274995  0.27307891  0.05328265    -0.92700
C2003       C  0.99194195  0.25858529  0.17672592     1.01100
C2004       C  0.90563941  0.26086991  0.15159909     1.14000
C2005       C  0.98748765  0.20047603  0.11556976     1.04800
O2006       O  0.03233439  0.22554536  0.07485481    -0.94800
O2007       O  0.01835591  0.24620450  0.03196864    -0.90600
O2008       O  0.00354995  0.27231044  0.01264042    -0.83700
C2009       C  0.01880030  0.25978598  0.01501252     1.11400
O2010       O  0.90476277  0.21515424  0.06785985    -0.96800
Zr2011     Zr  0.92950539  0.24006602  0.05250645     1.88900
O2012       O  0.94945457  0.27204864  0.99629702    -0.73400
O2013       O  0.98851387  0.21127615  0.03341721    -0.52700
O2014       O  0.93616255  0.21106762  0.02792117    -0.97400
O2015       O  0.88984506  0.24783166  0.04863825    -0.54600
O2016       O  0.92520088  0.24858567  0.00501286    -0.74000
C2017       C  0.93427887  0.26035701  0.98882612     0.98400
O2018       O  0.99178581  0.30356407  0.01429405    -0.62800
O2019       O  0.93364976  0.31044463  0.13116319    -0.57600
O2020       O  0.95069953  0.31014707  0.03491229    -0.94300
O2021       O  0.92782175  0.31296602  0.07169157    -0.92700
O2022       O  0.98695014  0.30949800  0.13892442    -0.93000
O2023       O  0.01963516  0.30510411  0.09895867    -0.91800
C2024       C  0.93656116  0.31911989  0.04965361     1.17200
H2025       H  0.95509574  0.27814792  0.14809276     0.33200
H2026       H  0.01241786  0.27253944  0.06355742     0.44000
H2027       H  0.92163371  0.27887774  0.04176917     0.37600
H2028       H  0.95469794  0.21409942  0.08326989     0.34000
H2029       H  0.03840780  0.28159779  0.13663475     0.25800
H2030       H  0.00362911  0.20586935  0.03081692     0.31800
H2031       H  0.94440101  0.21478328  0.01131998     0.37700
H2032       H  0.99726930  0.30915673  0.15468387     0.32100
H2033       H  0.94438398  0.31922890  0.12271809     0.31000
H2034       H  0.88734635  0.30229449  0.09965961     0.32700
H2035       H  0.88909083  0.25818938  0.03539651     0.31700
H2036       H  0.01036089  0.31311825  0.08706348     0.35700
H2037       H  0.98242247  0.30770769  0.99880931     0.28400
H2038       H  0.94597795  0.21314845  0.17000861     0.32600
H2039       H  0.89613573  0.21128121  0.05159959     0.35500
H2040       H  0.91905473  0.31696349  0.13019878     0.28100
H2041       H  0.99258070  0.31443377  0.02669766     0.40900
H2042       H  0.03865632  0.23500270  0.08737007     0.31000
H2043       H  0.03510118  0.26140934  0.12513405     0.38600
H2044       H  0.88600514  0.25365676  0.06629943     0.30500
H2045       H  0.97983157  0.20138479  0.04266393     0.30500
H2046       H  0.93140329  0.20715056  0.14479592     0.30800
Zr2047     Zr  0.95717592  0.02452507  0.15053394     2.17500
O2048       O  0.94050801  0.04635817  0.11828991    -0.51600
O2049       O  0.97966086  0.01838937  0.10973599    -0.74800
O2050       O  0.97288376  0.05584050  0.15322971    -0.81500
O2051       O  0.90549155  0.99338248  0.14630618    -0.83300
O2052       O  0.99678611  0.05806565  0.18875682    -0.78900
O2053       O  0.92101662  0.01973340  0.12897506    -0.90600
O2054       O  0.00277151  0.99377332  0.11722225    -0.76500
O2055       O  0.99386805  0.01728639  0.16601384    -0.86000
O2056       O  0.96056121  0.99149464  0.14677055    -0.85700
O2057       O  0.95767804  0.03589952  0.19676650    -0.72400
O2058       O  0.92851094  0.01205011  0.17973868    -0.84600
Zr2059     Zr  0.97078780  0.98218811  0.23836893     2.26400
Zr2060     Zr  0.99467940  0.02822622  0.21199416     2.06300
Zr2061     Zr  0.93251900  0.97905514  0.17639537     2.10000
Zr2062     Zr  0.99691840  0.98413530  0.16364396     1.78800
O2063       O  0.89432401  0.96719152  0.17904245    -0.93400
O2064       O  0.03691239  0.99022819  0.15874635    -0.41200
O2065       O  0.96892858  0.97073909  0.19250577    -0.77800
O2066       O  0.99940585  0.99505892  0.20949104    -0.96500
O2067       O  0.96696104  0.01514515  0.24148648    -0.89800
O2068       O  0.93397245  0.98916411  0.22276100    -0.92700
C2069       C  0.99483353  0.00674739  0.10226242     1.01100
C2070       C  0.90509263  0.00780062  0.13096874     1.14000
C2071       C  0.98677865  0.06500193  0.16805222     1.04800
O2072       O  0.03375966  0.03200117  0.19887797    -0.94800
O2073       O  0.01597181  0.01883363  0.25139655    -0.90600
O2074       O  0.00171624  0.99154872  0.26757753    -0.83700
C2075       C  0.01578545  0.00511656  0.26807165     1.11400
O2076       O  0.90431154  0.04660837  0.21293053    -0.96800
Zr2077     Zr  0.93023516  0.02197630  0.22618222     1.88900
O2078       O  0.95059647  0.98783958  0.28075665    -0.73400
O2079       O  0.99513958  0.05317409  0.24567410    -0.52700
O2080       O  0.93577531  0.05051203  0.25225094    -0.97400
O2081       O  0.89092383  0.01264852  0.22836812    -0.54600
O2082       O  0.92709907  0.01215065  0.27365242    -0.74000
C2083       C  0.93585301  0.99960058  0.28904347     0.98400
O2084       O  0.99344994  0.95577105  0.25360748    -0.62800
O2085       O  0.93825156  0.95626507  0.14026627    -0.57600
O2086       O  0.95051163  0.95273998  0.24036968    -0.94300
O2087       O  0.92766646  0.95139823  0.20365022    -0.92700
O2088       O  0.98997530  0.95554377  0.13824566    -0.93000
O2089       O  0.02183793  0.95955363  0.17952921    -0.91800
C2090       C  0.93579713  0.94451057  0.22556653     1.17200
H2091       H  0.95840043  0.98734946  0.12826869     0.33200
H2092       H  0.01405318  0.99156861  0.21613988     0.44000
H2093       H  0.92274888  0.98296332  0.23365558     0.37600
H2094       H  0.95505163  0.04916123  0.19760998     0.34000
H2095       H  0.04148364  0.98318117  0.14232561     0.25800
H2096       H  0.00932152  0.05996736  0.24232863     0.31800
H2097       H  0.94668158  0.04710974  0.26657851     0.37700
H2098       H  0.00337452  0.95400204  0.12658534     0.32100
H2099       H  0.93362659  0.94421016  0.14830343     0.31000
H2100       H  0.89292566  0.95840134  0.16358298     0.32700
H2101       H  0.88852230  0.00835147  0.24726011     0.31700
H2102       H  0.01175078  0.94993040  0.18717608     0.35700
H2103       H  0.99116668  0.94586924  0.23982907     0.28400
H2104       H  0.95307345  0.05124370  0.10724241     0.32600
H2105       H  0.89539573  0.04942416  0.22941319     0.35500
H2106       H  0.92645612  0.95909695  0.12673199     0.28100
H2107       H  0.00923305  0.95954000  0.25073663     0.40900
H2108       H  0.04061889  0.01962415  0.20204190     0.31000
H2109       H  0.03789278  0.00348011  0.15325169     0.38600
H2110       H  0.88990458  0.00118418  0.21719588     0.30500
H2111       H  0.98321447  0.06192505  0.23995378     0.30500
H2112       H  0.93519626  0.05711881  0.12917201     0.30800
C2113       C  0.99018070  0.08506945  0.16136102    -0.12200
C2114       C  0.00890453  0.09562415  0.17031029     0.03300
C2115       C  0.01038695  0.11467061  0.16397020    -0.12700
C2116       C  0.99355683  0.12349993  0.14885800     0.18100
C2117       C  0.97500671  0.11309557  0.13993014    -0.09800
C2118       C  0.97347757  0.09415962  0.14608747    -0.02700
H2119       H  0.02480051  0.12262261  0.17071459     0.04700
C2120       C  0.99550160  0.14348255  0.14189269     0.20100
H2121       H  0.95879575  0.08662463  0.13921993     0.09800
C2122       C  0.00160703  0.14842483  0.11539819    -0.16100
C2123       C  0.00004207  0.16690904  0.10646228     0.02800
C2124       C  0.99247197  0.18103449  0.12449759    -0.11400
C2125       C  0.98753365  0.17600718  0.15152775    -0.01500
C2126       C  0.98889476  0.15747537  0.16021893    -0.06600
H2127       H  0.00651277  0.13763019  0.10114701     0.05800
H2128       H  0.98177197  0.18644009  0.16583117     0.09200
Br2129     Br  0.95094011  0.12430414  0.11985075    -0.06300
Br2130     Br  0.03348744  0.08505337  0.19023658    -0.03300
Br2131     Br  0.00619018  0.17095278  0.06865872    -0.00400
Br2132     Br  0.97997594  0.15173467  0.19670667    -0.04800
C2133       C  0.88845205  0.00225230  0.45621638    -0.12200
C2134       C  0.89457454  0.01839893  0.44149824     0.03300
C2135       C  0.90257590  0.01686406  0.41477768    -0.12700
C2136       C  0.90441291  0.99948267  0.40178136     0.18100
C2137       C  0.89865587  0.98329988  0.41652802    -0.09800
C2138       C  0.89069126  0.98478948  0.44335485    -0.02700
H2139       H  0.90703163  0.02942383  0.40381867     0.04700
C2140       C  0.91196913  0.99873592  0.37279458     0.20100
H2141       H  0.88625897  0.97219404  0.45424448     0.09800
C2142       C  0.93225367  0.98995858  0.36602249    -0.16100
C2143       C  0.94045905  0.98995560  0.33919749     0.02800
C2144       C  0.92807977  0.99873101  0.31809944    -0.11400
C2145       C  0.90765969  0.00737064  0.32511357    -0.01500
C2146       C  0.89972160  0.00756061  0.35194716    -0.06600
H2147       H  0.94210392  0.98346527  0.38190404     0.05800
H2148       H  0.89768778  0.01415442  0.30961884     0.09200
Br2149     Br  0.90052386  0.95890261  0.40062250    -0.06300
Br2150     Br  0.89082519  0.04312223  0.45574793    -0.03300
Br2151     Br  0.96941201  0.97881791  0.33375995    -0.00400
Br2152     Br  0.87184284  0.02004467  0.35892342    -0.04800
C2153       C  0.88951997  0.26360706  0.82129839    -0.12200
C2154       C  0.88297812  0.27720288  0.84084327     0.03300
C2155       C  0.89171123  0.27656989  0.86729098    -0.12700
C2156       C  0.90722747  0.26291645  0.87497964     0.18100
C2157       C  0.91437055  0.24980096  0.85556905    -0.09800
C2158       C  0.90554580  0.25018133  0.82918515    -0.02700
H2159       H  0.88622204  0.28678091  0.88212521     0.04700
C2160       C  0.91486191  0.26208194  0.90368998     0.20100
H2161       H  0.91124342  0.23972975  0.81485827     0.09800
C2162       C  0.90729494  0.24752443  0.92024495    -0.16100
C2163       C  0.91297331  0.24664952  0.94786746     0.02800
C2164       C  0.92701070  0.26056375  0.95959588    -0.11400
C2165       C  0.93462270  0.27510164  0.94259716    -0.01500
C2166       C  0.92859893  0.27597731  0.91507776    -0.06600
H2167       H  0.89652929  0.23686491  0.91163253     0.05800
H2168       H  0.94528320  0.28600651  0.95068139     0.09200
Br2169     Br  0.93652748  0.23132404  0.86405753    -0.06300
Br2170     Br  0.86272920  0.29744088  0.83355157    -0.03300
Br2171     Br  0.90040865  0.22597266  0.96751832    -0.00400
Br2172     Br  0.93992837  0.29620312  0.89359658    -0.04800
C2173       C  0.82678689  0.08446579  0.62208047    -0.12200
C2174       C  0.84531520  0.09619086  0.62756812     0.03300
C2175       C  0.84187075  0.11442506  0.63674465    -0.12700
C2176       C  0.82020826  0.12139931  0.64069400     0.18100
C2177       C  0.80166484  0.10981116  0.63530758    -0.09800
C2178       C  0.80503594  0.09152292  0.62589994    -0.02700
H2179       H  0.85621324  0.12334363  0.64050799     0.04700
C2180       C  0.81769037  0.14107409  0.64936754     0.20100
H2181       H  0.79064890  0.08269417  0.62199581     0.09800
C2182       C  0.81500785  0.15491811  0.62953262    -0.16100
C2183       C  0.81578015  0.17386654  0.63650609     0.02800
C2184       C  0.81935084  0.17922099  0.66381994    -0.11400
C2185       C  0.82099916  0.16529553  0.68379708    -0.01500
C2186       C  0.82036260  0.14636844  0.67673924    -0.06600
H2187       H  0.81290003  0.15095382  0.60842181     0.05800
H2188       H  0.82381452  0.16913078  0.70484005     0.09200
Br2189     Br  0.77158979  0.11830151  0.64105453    -0.06300
Br2190     Br  0.87574954  0.08865609  0.62122010    -0.03300
Br2191     Br  0.81129899  0.19177346  0.60803031    -0.00400
Br2192     Br  0.82412795  0.12819427  0.70492663    -0.04800
C2193       C  0.13528824  0.00373181  0.36221873    -0.12200
C2194       C  0.11606540  0.99527207  0.37323343     0.03300
C2195       C  0.09639099  0.99464245  0.35802614    -0.12700
C2196       C  0.09573789  0.00234471  0.33192733     0.18100
C2197       C  0.11517935  0.01027064  0.32057128    -0.09800
C2198       C  0.13490645  0.01087576  0.33579078    -0.02700
H2199       H  0.08145675  0.98844985  0.36671705     0.04700
C2200       C  0.07438859  0.00257871  0.31724982     0.20100
H2201       H  0.14976831  0.01730574  0.32728990     0.09800
C2202       C  0.06227158  0.01925821  0.31592838    -0.16100
C2203       C  0.04239584  0.02022919  0.30108052     0.02800
C2204       C  0.03428578  0.00418006  0.28767764    -0.11400
C2205       C  0.04599967  0.98728780  0.29012277    -0.01500
C2206       C  0.06608971  0.98645209  0.30455447    -0.06600
H2207       H  0.06855675  0.03163325  0.32605983     0.05800
H2208       H  0.04020520  0.97495201  0.27949666     0.09200
Br2209     Br  0.11537612  0.02059189  0.28462786    -0.06300
Br2210     Br  0.11582935  0.98471827  0.40906688    -0.03300
Br2211     Br  0.02710326  0.04374935  0.29998069    -0.00400
Br2212     Br  0.08252068  0.96346224  0.30472963    -0.04800
C2213       C  0.23917575  0.82970847  0.37612279    -0.12200
C2214       C  0.23727859  0.83504920  0.40381753     0.03300
C2215       C  0.23859683  0.85392447  0.41118733    -0.12700
C2216       C  0.24214456  0.86775133  0.39157675     0.18100
C2217       C  0.24531067  0.86245954  0.36430825    -0.09800
C2218       C  0.24379084  0.84363445  0.35676775    -0.02700
H2219       H  0.23642239  0.85788576  0.43229014     0.04700
C2220       C  0.24053993  0.88768555  0.39938386     0.20100
H2221       H  0.24535430  0.83999069  0.33547228     0.09800
C2222       C  0.26001169  0.89813728  0.40438792    -0.16100
C2223       C  0.25874592  0.91729888  0.41020372     0.02800
C2224       C  0.23766939  0.92628763  0.41092372    -0.11400
C2225       C  0.21825759  0.91565670  0.40615392    -0.01500
C2226       C  0.21955445  0.89656483  0.40058546    -0.06600
H2227       H  0.27624962  0.89143092  0.40327835     0.05800
H2228       H  0.20191357  0.92222106  0.40687160     0.09200
Br2229     Br  0.25069182  0.88069535  0.33657741    -0.06300
Br2230     Br  0.23359787  0.81742315  0.43283522    -0.03300
Br2231     Br  0.28635635  0.93064810  0.41507048    -0.00400
Br2232     Br  0.19221462  0.88318606  0.39405543    -0.04800
C2233       C  0.13717420  0.75081478  0.07067127    -0.12200
C2234       C  0.13988052  0.73406082  0.08546569     0.03300
C2235       C  0.14800939  0.73461863  0.11219073    -0.12700
C2236       C  0.15344058  0.75162421  0.12463588     0.18100
C2237       C  0.15119701  0.76827136  0.10982661    -0.09800
C2238       C  0.14324817  0.76776638  0.08306507    -0.02700
H2239       H  0.14996760  0.72173188  0.12341469     0.04700
C2240       C  0.16095627  0.75175715  0.15327792     0.20100
H2241       H  0.14130854  0.78075839  0.07210320     0.09800
C2242       C  0.18391568  0.75098856  0.15918428    -0.16100
C2243       C  0.19149134  0.75099634  0.18614383     0.02800
C2244       C  0.17588579  0.75163648  0.20773854    -0.11400
C2245       C  0.15291534  0.75276595  0.20168569    -0.01500
C2246       C  0.14540607  0.75271503  0.17472752    -0.06600
H2247       H  0.19597983  0.75054331  0.14273788     0.05800
H2248       H  0.14073429  0.75340811  0.21799522     0.09200
Br2249     Br  0.15833182  0.79201849  0.12560668    -0.06300
Br2250     Br  0.13373618  0.70996132  0.07007799    -0.03300
Br2251     Br  0.22331337  0.75148458  0.19215713    -0.00400
Br2252     Br  0.11377258  0.75389303  0.16800739    -0.04800
C2253       C  0.05742794  0.00547709  0.94463456    -0.12200
C2254       C  0.06599256  0.99532624  0.96710743     0.03300
C2255       C  0.05518212  0.99629835  0.99245069    -0.12700
C2256       C  0.03600209  0.00728703  0.99618286     0.18100
C2257       C  0.02747405  0.01744049  0.97414750    -0.09800
C2258       C  0.03802796  0.01643726  0.94881505    -0.02700
H2259       H  0.06180124  0.98842680  0.00943215     0.04700
C2260       C  0.02475779  0.00766560  0.02302469     0.20100
H2261       H  0.03082558  0.02437185  0.93226767     0.09800
C2262       C  0.03243035  0.01988303  0.04332706    -0.16100
C2263       C  0.02228771  0.02018517  0.06904683     0.02800
C2264       C  0.00412546  0.00824547  0.07462136    -0.11400
C2265       C  0.99639042  0.99611968  0.05428409    -0.01500
C2266       C  0.00655890  0.99577194  0.02862153    -0.06600
H2267       H  0.04650011  0.02901443  0.03925277     0.05800
H2268       H  0.98271587  0.98662346  0.05857308     0.09200
Br2269     Br  0.00143049  0.03294918  0.97780273    -0.06300
Br2270     Br  0.09261474  0.98034967  0.96550992    -0.03300
Br2271     Br  0.03432201  0.03642450  0.09645388    -0.00400
Br2272     Br  0.99566362  0.97840575  0.00202369    -0.04800
C2273       C  0.03195700  0.00495607  0.73159659    -0.12200
C2274       C  0.02202183  0.98875843  0.72042928     0.03300
C2275       C  0.00316904  0.99037123  0.70384438    -0.12700
C2276       C  0.99394540  0.00785200  0.69811445     0.18100
C2277       C  0.00407638  0.02403772  0.70848214    -0.09800
C2278       C  0.02307591  0.02252420  0.72490078    -0.02700
H2279       H  0.99537006  0.97788766  0.69574878     0.04700
C2280       C  0.97290211  0.00866610  0.68271417     0.20100
H2281       H  0.03036141  0.03510501  0.73335036     0.09800
C2282       C  0.95281346  0.01111216  0.69695998    -0.16100
C2283       C  0.93224047  0.01009805  0.68353823     0.02800
C2284       C  0.93164993  0.00662633  0.65533132    -0.11400
C2285       C  0.95190734  0.00451241  0.64104997    -0.01500
C2286       C  0.97245805  0.00547829  0.65455225    -0.06600
H2287       H  0.95315154  0.01322352  0.71877788     0.05800
H2288       H  0.95173964  0.00195539  0.61933036     0.09200
Br2289     Br  0.99213203  0.04835743  0.70127010    -0.06300
Br2290     Br  0.03341724  0.96406710  0.72626467    -0.03300
Br2291     Br  0.90571481  0.01184060  0.70527914    -0.00400
Br2292     Br  0.99948570  0.00211496  0.63399133    -0.04800
C2293       C  0.14460716  0.01052982  0.70610869    -0.12200
C2294       C  0.14330090  0.02704095  0.69031100     0.03300
C2295       C  0.15124419  0.02712694  0.66347735    -0.12700
C2296       C  0.16089132  0.01116918  0.65193025     0.18100
C2297       C  0.16291692  0.99494245  0.66778164    -0.09800
C2298       C  0.15477658  0.99469600  0.69449312    -0.02700
H2299       H  0.14994721  0.03975854  0.65152137     0.04700
C2300       C  0.16833454  0.01156141  0.62316691     0.20100
H2301       H  0.15606961  0.98189446  0.70604683     0.09800
C2302       C  0.19117823  0.01365192  0.61704858    -0.16100
C2303       C  0.19871423  0.01337764  0.59002624     0.02800
C2304       C  0.18325536  0.01067612  0.56862497    -0.11400
C2305       C  0.16038640  0.00886529  0.57483517    -0.01500
C2306       C  0.15285775  0.00951710  0.60176246    -0.06600
H2307       H  0.20319981  0.01529764  0.63338491     0.05800
H2308       H  0.14827736  0.00704932  0.55862155     0.09200
Br2309     Br  0.17619994  0.97262288  0.65353980    -0.06300
Br2310     Br  0.13210644  0.05031303  0.70422457    -0.03300
Br2311     Br  0.23037703  0.01556404  0.58364693    -0.00400
Br2312     Br  0.12129494  0.00728691  0.60837312    -0.04800
C2313       C  0.07729081  0.92488642  0.85974731    -0.12200
C2314       C  0.05654770  0.91550134  0.85700026     0.03300
C2315       C  0.05462597  0.89682700  0.86510772    -0.12700
C2316       C  0.07310292  0.88722369  0.87572915     0.18100
C2317       C  0.09397879  0.89627347  0.87731431    -0.09800
C2318       C  0.09587275  0.91496188  0.86969300    -0.02700
H2319       H  0.03854078  0.88987964  0.86367259     0.04700
C2320       C  0.07037948  0.86796036  0.88589490     0.20100
H2321       H  0.11205816  0.92173085  0.87134344     0.09800
C2322       C  0.06875308  0.85315288  0.86738482    -0.16100
C2323       C  0.06860972  0.83464674  0.87647661     0.02800
C2324       C  0.07032878  0.83075772  0.90458834    -0.11400
C2325       C  0.07051510  0.84569487  0.92310803    -0.01500
C2326       C  0.07051700  0.86416661  0.91396623    -0.06600
H2327       H  0.06809624  0.85599427  0.84577209     0.05800
H2328       H  0.07159354  0.84301905  0.94473913     0.09200
Br2329     Br  0.12043567  0.88350385  0.88937983    -0.06300
Br2330     Br  0.02991538  0.92757972  0.84406004    -0.03300
Br2331     Br  0.06521984  0.81532855  0.84966549    -0.00400
Br2332     Br  0.07128377  0.88385631  0.94044230    -0.04800
C2333       C  0.67823061  0.25561953  0.87146398    -0.12200
C2334       C  0.68555212  0.27280195  0.86027693     0.03300
C2335       C  0.70597762  0.27366768  0.84655086    -0.12700
C2336       C  0.71957153  0.25792110  0.84437040     0.18100
C2337       C  0.71305189  0.24110115  0.85638550    -0.09800
C2338       C  0.69244976  0.23995872  0.86941884    -0.02700
H2339       H  0.71124394  0.28665719  0.83729691     0.04700
C2340       C  0.73930885  0.25857194  0.82694885     0.20100
H2341       H  0.68772644  0.22667336  0.87816342     0.09800
C2342       C  0.76005012  0.26398920  0.83770122    -0.16100
C2343       C  0.77934269  0.26323806  0.82162513     0.02800
C2344       C  0.77776432  0.25673078  0.79464064    -0.11400
C2345       C  0.75678295  0.25164144  0.78400470    -0.01500
C2346       C  0.73759805  0.25272927  0.79983469    -0.06600
H2347       H  0.76124689  0.26847360  0.85869482     0.05800
H2348       H  0.75520427  0.24712564  0.76305045     0.09200
Br2349     Br  0.73183044  0.21936731  0.85535692    -0.06300
Br2350     Br  0.66977076  0.29596334  0.86354064    -0.03300
Br2351     Br  0.80733322  0.27014842  0.83793630    -0.00400
Br2352     Br  0.70933098  0.24628813  0.78360451    -0.04800
C2353       C  0.57285795  0.42860721  0.87843312    -0.12200
C2354       C  0.56995036  0.41390687  0.85949774     0.03300
C2355       C  0.56888482  0.39538111  0.86853174    -0.12700
C2356       C  0.57084265  0.39105100  0.89620612     0.18100
C2357       C  0.57370875  0.40560284  0.91510325    -0.09800
C2358       C  0.57464201  0.42412697  0.90620977    -0.02700
H2359       H  0.56733496  0.38421656  0.85378096     0.04700
C2360       C  0.57233656  0.37126435  0.90473645     0.20100
H2361       H  0.57700035  0.43508406  0.92113419     0.09800
C2362       C  0.59344783  0.36397765  0.91116124    -0.16100
C2363       C  0.59592226  0.34540269  0.91919435     0.02800
C2364       C  0.57696448  0.33367011  0.92118485    -0.11400
C2365       C  0.55573102  0.34104544  0.91509797    -0.01500
C2366       C  0.55335085  0.35963273  0.90658362    -0.06600
H2367       H  0.60813264  0.37283035  0.90984853     0.05800
H2368       H  0.54104987  0.33218389  0.91620987     0.09200
Br2369     Br  0.57674121  0.40072439  0.95326981    -0.06300
Br2370     Br  0.56965682  0.41778559  0.82091425    -0.03300
Br2371     Br  0.62559014  0.33713362  0.92815707    -0.00400
Br2372     Br  0.52398981  0.36851504  0.89753696    -0.04800
C2373       C  0.74473867  0.25084635  0.45736374    -0.12200
C2374       C  0.74982467  0.26793132  0.47031491     0.03300
C2375       C  0.76007128  0.26786722  0.49588928    -0.12700
C2376       C  0.76557020  0.25104809  0.50870219     0.18100
C2377       C  0.76010735  0.23403839  0.49618636    -0.09800
C2378       C  0.74985171  0.23402890  0.47067924    -0.02700
H2379       H  0.76425381  0.28099538  0.50558457     0.04700
C2380       C  0.77679912  0.25155521  0.53531547     0.20100
H2381       H  0.74603440  0.22079130  0.46107686     0.09800
C2382       C  0.76384145  0.25448981  0.55855517    -0.16100
C2383       C  0.77380305  0.25558139  0.58417884     0.02800
C2384       C  0.79735302  0.25366749  0.58684100    -0.11400
C2385       C  0.81022048  0.25035362  0.56337310    -0.01500
C2386       C  0.80013242  0.24940934  0.53772899    -0.06600
H2387       H  0.74582765  0.25595984  0.55670186     0.05800
H2388       H  0.82825767  0.24897053  0.56485980     0.09200
Br2389     Br  0.76643467  0.21057527  0.51324510    -0.06300
Br2390     Br  0.74515668  0.29171068  0.45331340    -0.03300
Br2391     Br  0.75384251  0.25902221  0.61436939    -0.00400
Br2392     Br  0.81881009  0.24569029  0.50645057    -0.04800
C2393       C  0.78861396  0.25292559  0.25220938    -0.12200
C2394       C  0.78843778  0.24703781  0.22476337     0.03300
C2395       C  0.80816422  0.24797969  0.20945666    -0.12700
C2396       C  0.82818718  0.25437961  0.22112659     0.18100
C2397       C  0.82852177  0.25980816  0.24854735    -0.09800
C2398       C  0.80886168  0.25913656  0.26376179    -0.02700
H2399       H  0.80787563  0.24386232  0.18825330     0.04700
C2400       C  0.84843751  0.25583451  0.20418881     0.20100
H2401       H  0.80950396  0.26334510  0.28491671     0.09800
C2402       C  0.85645079  0.27353355  0.19723486    -0.16100
C2403       C  0.87533345  0.27556225  0.18075202     0.02800
C2404       C  0.88647027  0.25955858  0.17064612    -0.11400
C2405       C  0.87861077  0.24180626  0.17830024    -0.01500
C2406       C  0.85971999  0.23987817  0.19487742    -0.06600
H2407       H  0.84792437  0.28585615  0.20472268     0.05800
H2408       H  0.88689862  0.22934502  0.17094517     0.09200
Br2409     Br  0.85555396  0.26773166  0.26630837    -0.06300
Br2410     Br  0.76191724  0.23845604  0.20647418    -0.03300
Br2411     Br  0.88537073  0.30060695  0.17417499    -0.00400
Br2412     Br  0.84999566  0.21527708  0.20472109    -0.04800
C2413       C  0.67572837  0.24537075  0.21277842    -0.12200
C2414       C  0.65297321  0.24790438  0.20577333     0.03300
C2415       C  0.64655034  0.24794476  0.17849377    -0.12700
C2416       C  0.66217797  0.24476180  0.15772930     0.18100
C2417       C  0.68480068  0.24160517  0.16468437    -0.09800
C2418       C  0.69133604  0.24187511  0.19198457    -0.02700
H2419       H  0.62914896  0.25049602  0.17343324     0.04700
C2420       C  0.65455242  0.24559998  0.12907884     0.20100
H2421       H  0.70884033  0.23974946  0.19690401     0.09800
C2422       C  0.66419023  0.25874460  0.11159553    -0.16100
C2423       C  0.65700518  0.26058606  0.08468381     0.02800
C2424       C  0.63911566  0.24936770  0.07482752    -0.11400
C2425       C  0.62944545  0.23626625  0.09265857    -0.01500
C2426       C  0.63700806  0.23426121  0.11935817    -0.06600
H2427       H  0.67740936  0.26777733  0.11903501     0.05800
H2428       H  0.61583900  0.22739049  0.08591905     0.09200
Br2429     Br  0.70750717  0.23681033  0.13790556    -0.06300
Br2430     Br  0.62947034  0.25019001  0.23218414    -0.03300
Br2431     Br  0.67304580  0.27863663  0.06335180    -0.00400
Br2432     Br  0.62305997  0.21540639  0.14130842    -0.04800
C2433       C  0.63050059  0.50997637  0.71479635    -0.12200
C2434       C  0.65189480  0.50348028  0.70642316     0.03300
C2435       C  0.65820236  0.50448885  0.67902788    -0.12700
C2436       C  0.64378834  0.51195149  0.65941162     0.18100
C2437       C  0.62261501  0.51853935  0.66747366    -0.09800
C2438       C  0.61614860  0.51752642  0.69484334    -0.02700
H2439       H  0.67457505  0.49944856  0.67294279     0.04700
C2440       C  0.65105900  0.51230087  0.63058967     0.20100
H2441       H  0.59972610  0.52266607  0.70047856     0.09800
C2442       C  0.64114916  0.50000534  0.61202686    -0.16100
C2443       C  0.64801448  0.49938923  0.58481192     0.02800
C2444       C  0.66594247  0.51090848  0.57577445    -0.11400
C2445       C  0.67554734  0.52344204  0.59463933    -0.01500
C2446       C  0.66809143  0.52434094  0.62159934    -0.06600
H2447       H  0.62783092  0.49084270  0.61879633     0.05800
H2448       H  0.68891087  0.53274967  0.58849497     0.09200
Br2449     Br  0.60235311  0.52962771  0.64187871    -0.06300
Br2450     Br  0.67409805  0.49391924  0.73094107    -0.03300
Br2451     Br  0.63121893  0.48279205  0.56177187    -0.00400
Br2452     Br  0.68099443  0.54276003  0.64522071    -0.04800
C2453       C  0.73032654  0.33053399  0.37813201    -0.12200
C2454       C  0.73643274  0.34534789  0.36059747     0.03300
C2455       C  0.73667960  0.36378031  0.37028189    -0.12700
C2456       C  0.73048665  0.36799136  0.39710065     0.18100
C2457       C  0.72442638  0.35334797  0.41461039    -0.09800
C2458       C  0.72455754  0.33490470  0.40519915    -0.02700
H2459       H  0.74092853  0.37500712  0.35649511     0.04700
C2460       C  0.72892344  0.38778726  0.40591300     0.20100
H2461       H  0.71971516  0.32393504  0.41912170     0.09800
C2462       C  0.70770415  0.39589528  0.40934098    -0.16100
C2463       C  0.70547196  0.41457649  0.41734670     0.02800
C2464       C  0.72473303  0.42558934  0.42199002    -0.11400
C2465       C  0.74595114  0.41730231  0.41926580    -0.01500
C2466       C  0.74815653  0.39866795  0.41092973    -0.06600
H2467       H  0.69278937  0.38760661  0.40582585     0.05800
H2468       H  0.76090469  0.42551559  0.42288016     0.09200
Br2469     Br  0.71550390  0.35793491  0.45149444    -0.06300
Br2470     Br  0.74228135  0.34191869  0.32258504    -0.03300
Br2471     Br  0.67576049  0.42392833  0.42346140    -0.00400
Br2472     Br  0.77774279  0.38874431  0.40631667    -0.04800
C2473       C  0.92310229  0.83508281  0.54074651    -0.12200
C2474       C  0.92490976  0.84291570  0.51441110     0.03300
C2475       C  0.91717001  0.86116149  0.50963436    -0.12700
C2476       C  0.90747058  0.87169345  0.53063623     0.18100
C2477       C  0.90522952  0.86376235  0.55657778    -0.09800
C2478       C  0.91308224  0.84580971  0.56144421    -0.02700
H2479       H  0.91891257  0.86721300  0.48958343     0.04700
C2480       C  0.90118462  0.89142144  0.52645293     0.20100
H2481       H  0.91149345  0.84032197  0.58186095     0.09800
C2482       C  0.87980848  0.89601212  0.51659467    -0.16100
C2483       C  0.87156670  0.91432774  0.51873847     0.02800
C2484       C  0.88478201  0.92823427  0.53143014    -0.11400
C2485       C  0.90691358  0.92374443  0.53889673    -0.01500
C2486       C  0.91508512  0.90562068  0.53656411    -0.06600
H2487       H  0.86903698  0.88511921  0.50866805     0.05800
H2488       H  0.91765996  0.93421862  0.54799926     0.09200
Br2489     Br  0.89178226  0.87706114  0.58633539    -0.06300
Br2490     Br  0.93679511  0.82935806  0.48398083    -0.03300
Br2491     Br  0.84168869  0.91880342  0.50608985    -0.00400
Br2492     Br  0.94468393  0.90052486  0.54991597    -0.04800
C2493       C  0.99872391  0.75434921  0.70204903    -0.12200
C2494       C  0.99889217  0.73767005  0.71744744     0.03300
C2495       C  0.00970943  0.73722237  0.74271380    -0.12700
C2496       C  0.02033360  0.75310079  0.75332969     0.18100
C2497       C  0.02022878  0.76968929  0.73810312    -0.09800
C2498       C  0.00949928  0.77020313  0.71286468    -0.02700
H2499       H  0.00998476  0.72431711  0.75413764     0.04700
C2500       C  0.03127721  0.75213240  0.78036141     0.20100
H2501       H  0.00961666  0.78318937  0.70164174     0.09800
C2502       C  0.05449079  0.75505891  0.78258360    -0.16100
C2503       C  0.06519271  0.75476317  0.80794725     0.02800
C2504       C  0.05260962  0.75112729  0.83168815    -0.11400
C2505       C  0.02946359  0.74784097  0.82925813    -0.01500
C2506       C  0.01878154  0.74839108  0.80400814    -0.06600
H2507       H  0.06432251  0.75763797  0.76445760     0.05800
H2508       H  0.01946414  0.74518560  0.84722569     0.09200
Br2509     Br  0.03398324  0.79221528  0.75112549    -0.06300
Br2510     Br  0.98602308  0.71463471  0.70499942    -0.03300
Br2511     Br  0.09705498  0.75861944  0.80855917    -0.00400
Br2512     Br  0.98691340  0.74469053  0.80318322    -0.04800
C2513       C  0.13451803  0.75013582  0.41802313    -0.12200
C2514       C  0.11999794  0.73489761  0.42308844     0.03300
C2515       C  0.09992916  0.73782181  0.43704132    -0.12700
C2516       C  0.09431949  0.75553995  0.44682208     0.18100
C2517       C  0.10927542  0.77045205  0.44333840    -0.09800
C2518       C  0.12905073  0.76773923  0.42879288    -0.02700
H2519       H  0.08884878  0.72613346  0.44085585     0.04700
C2520       C  0.07387207  0.75770025  0.46305647     0.20100
H2521       H  0.13991194  0.77961159  0.42542943     0.09800
C2522       C  0.07595802  0.75778866  0.49132215    -0.16100
C2523       C  0.05703971  0.75844269  0.50778329     0.02800
C2524       C  0.03551995  0.75906492  0.49589054    -0.11400
C2525       C  0.03342504  0.75973537  0.46751225    -0.01500
C2526       C  0.05251138  0.75884214  0.45100396    -0.06600
H2527       H  0.09241059  0.75702001  0.50059950     0.05800
H2528       H  0.01696814  0.76020599  0.45822562     0.09200
Br2529     Br  0.10327196  0.79477966  0.45787828    -0.06300
Br2530     Br  0.12701808  0.70957184  0.41345611    -0.03300
Br2531     Br  0.06175621  0.75874313  0.54642341    -0.00400
Br2532     Br  0.04875023  0.75875732  0.41229022    -0.04800
C2533       C  0.92369862  0.42797445  0.75686359    -0.12200
C2534       C  0.90120678  0.42468926  0.76412160     0.03300
C2535       C  0.89335542  0.40641354  0.76653175    -0.12700
C2536       C  0.90753044  0.39128312  0.76118669     0.18100
C2537       C  0.93030024  0.39450787  0.75536887    -0.09800
C2538       C  0.93831240  0.41281131  0.75365088    -0.02700
H2539       H  0.87574149  0.40400452  0.77059573     0.04700
C2540       C  0.89731362  0.37298015  0.75568925     0.20100
H2541       H  0.95548787  0.41518793  0.74738559     0.09800
C2542       C  0.88675463  0.37050552  0.73054017    -0.16100
C2543       C  0.87790003  0.35326516  0.72316424     0.02800
C2544       C  0.87940874  0.33809839  0.74124808    -0.11400
C2545       C  0.88915968  0.34075468  0.76698278    -0.01500
C2546       C  0.89829927  0.35808229  0.77420760    -0.06600
H2547       H  0.88575038  0.38202771  0.71635418     0.05800
H2548       H  0.89039072  0.32918389  0.78104509     0.09200
Br2549     Br  0.95018956  0.37446226  0.74603093    -0.06300
Br2550     Br  0.88019637  0.44467022  0.76880606    -0.03300
Br2551     Br  0.86344516  0.35146976  0.68840349    -0.00400
Br2552     Br  0.91238731  0.36077186  0.80901802    -0.04800
C2553       C  0.87949008  0.50071571  0.62264349    -0.12200
C2554       C  0.86829379  0.48444268  0.61378934     0.03300
C2555       C  0.84860503  0.48606296  0.59872147    -0.12700
C2556       C  0.83993675  0.50363444  0.59226388     0.18100
C2557       C  0.85118053  0.51983518  0.60060961    -0.09800
C2558       C  0.87087662  0.51830071  0.61561800    -0.02700
H2559       H  0.84007909  0.47358034  0.59179777     0.04700
C2560       C  0.81959871  0.50475176  0.57577275     0.20100
H2561       H  0.87917867  0.53093007  0.62235023     0.09800
C2562       C  0.79891860  0.50818273  0.58838241    -0.16100
C2563       C  0.77919534  0.50866538  0.57303716     0.02800
C2564       C  0.78032138  0.50566617  0.54478148    -0.11400
C2565       C  0.80112380  0.50249741  0.53232753    -0.01500
C2566       C  0.82068580  0.50198612  0.54757957    -0.06600
H2567       H  0.79813076  0.51017574  0.61020075     0.05800
H2568       H  0.80214533  0.50033678  0.51054256     0.09200
Br2569     Br  0.84023000  0.54425178  0.59187555    -0.06300
Br2570     Br  0.87945220  0.45970150  0.62028048    -0.03300
Br2571     Br  0.75127002  0.51212522  0.59170721    -0.00400
Br2572     Br  0.84845316  0.49737768  0.52905754    -0.04800
C2573       C  0.98344837  0.58192982  0.65934350    -0.12200
C2574       C  0.00435924  0.59123452  0.66070947     0.03300
C2575       C  0.00603761  0.60996797  0.65255988    -0.12700
C2576       C  0.98714899  0.61975987  0.64331707     0.18100
C2577       C  0.96636718  0.61052615  0.64210802    -0.09800
C2578       C  0.96471735  0.59183448  0.64979118    -0.02700
H2579       H  0.02212645  0.61694942  0.65348238     0.04700
C2580       C  0.98910393  0.63959569  0.63505882     0.20100
H2581       H  0.94843019  0.58516959  0.64904665     0.09800
C2582       C  0.98782968  0.64422701  0.60741151    -0.16100
C2583       C  0.98697358  0.66288852  0.59901512     0.02800
C2584       C  0.98749295  0.67740003  0.61851517    -0.11400
C2585       C  0.98940188  0.67267251  0.64613709    -0.01500
C2586       C  0.99026617  0.65400882  0.65446345    -0.06600
H2587       H  0.98660645  0.63322690  0.59235207     0.05800
H2588       H  0.98965151  0.68355893  0.66140363     0.09200
Br2589     Br  0.93942040  0.62312364  0.63142303    -0.06300
Br2590     Br  0.03131933  0.57907901  0.67247766    -0.03300
Br2591     Br  0.98252197  0.66739571  0.56098745    -0.00400
Br2592     Br  0.99147717  0.64885401  0.69266177    -0.04800
C2593       C  0.93009664  0.33817033  0.04169342    -0.12200
C2594       C  0.91932473  0.34212831  0.01685022     0.03300
C2595       C  0.91000429  0.35989001  0.01252637    -0.12700
C2596       C  0.91191507  0.37385965  0.03246424     0.18100
C2597       C  0.92399793  0.37015444  0.05642872    -0.09800
C2598       C  0.93272549  0.35240523  0.06098332    -0.02700
H2599       H  0.90084039  0.36266449  0.99396107     0.04700
C2600       C  0.90005056  0.39185770  0.02966922     0.20100
H2601       H  0.94115904  0.34955111  0.08004597     0.09800
C2602       C  0.87793010  0.39317617  0.03919868    -0.16100
C2603       C  0.86821461  0.41060006  0.04438972     0.02800
C2604       C  0.88072805  0.42696942  0.04008973    -0.11400
C2605       C  0.90226167  0.42568963  0.02878191    -0.01500
C2606       C  0.91185322  0.40826355  0.02326022    -0.06600
H2607       H  0.86879844  0.38062652  0.04445990     0.05800
H2608       H  0.91196376  0.43823271  0.02527511     0.09200
Br2609     Br  0.92804547  0.38870700  0.08421648    -0.06300
Br2610     Br  0.91554770  0.32334804  0.98938396    -0.03300
Br2611     Br  0.83886785  0.41137859  0.06030216    -0.00400
Br2612     Br  0.94170884  0.40730326  0.00892008    -0.04800
C2613       C  0.75632972  0.50341458  0.34019959    -0.12200
C2614       C  0.77966971  0.50561313  0.33627856     0.03300
C2615       C  0.78850811  0.50588333  0.30995689    -0.12700
C2616       C  0.77459838  0.50361888  0.28726918     0.18100
C2617       C  0.75154733  0.50039156  0.29111480    -0.09800
C2618       C  0.74258326  0.50041761  0.31739231    -0.02700
H2619       H  0.80640252  0.50760823  0.30714776     0.04700
C2620       C  0.78474612  0.50356988  0.25988730     0.20100
H2621       H  0.72469378  0.49850057  0.31993212     0.09800
C2622       C  0.78725880  0.48655750  0.24634524    -0.16100
C2623       C  0.79702796  0.48570317  0.22058605     0.02800
C2624       C  0.80485405  0.50218168  0.20789336    -0.11400
C2625       C  0.80274711  0.51923493  0.22189816    -0.01500
C2626       C  0.79255735  0.52003979  0.24756615    -0.06600
H2627       H  0.78155875  0.47381857  0.25594968     0.05800
H2628       H  0.80839463  0.53205398  0.21251785     0.09200
Br2629     Br  0.73161528  0.49627654  0.26108995    -0.06300
Br2630     Br  0.80062569  0.50695569  0.36583289    -0.03300
Br2631     Br  0.79974851  0.46135078  0.20468848    -0.00400
Br2632     Br  0.78856319  0.54393158  0.26453067    -0.04800
C2633       C  0.67204657  0.51017427  0.92144318    -0.12200
C2634       C  0.69277350  0.50837859  0.90794689     0.03300
C2635       C  0.71237432  0.50663796  0.92299433    -0.12700
C2636       C  0.71166194  0.50662691  0.95137942     0.18100
C2637       C  0.69095147  0.50823028  0.96495686    -0.09800
C2638       C  0.67120738  0.50977007  0.94986791    -0.02700
H2639       H  0.72828274  0.50531233  0.91253578     0.04700
C2640       C  0.73292895  0.50578714  0.96622860     0.20100
H2641       H  0.65528062  0.51108240  0.96027786     0.09800
C2642       C  0.74721582  0.52127975  0.96536074    -0.16100
C2643       C  0.76732209  0.52129166  0.97979008     0.02800
C2644       C  0.77325954  0.50560798  0.99534903    -0.11400
C2645       C  0.75956841  0.48967579  0.99487055    -0.01500
C2646       C  0.73947119  0.48965707  0.98032947    -0.06600
H2647       H  0.74255564  0.53347115  0.95366260     0.05800
H2648       H  0.76410498  0.47748170  0.00663029     0.09200
Br2649     Br  0.68892815  0.50921491  0.00384800    -0.06300
Br2650     Br  0.69529461  0.50735526  0.86904585    -0.03300
Br2651     Br  0.78643512  0.54271709  0.97688129    -0.00400
Br2652     Br  0.72149030  0.46744110  0.98014867    -0.04800
C2653       C  0.92520630  0.50174411  0.82967072    -0.12200
C2654       C  0.92465611  0.48496655  0.84477446     0.03300
C2655       C  0.91707409  0.48512671  0.87173149    -0.12700
C2656       C  0.90936273  0.50163378  0.88380873     0.18100
C2657       C  0.90927382  0.51821817  0.86863341    -0.09800
C2658       C  0.91733430  0.51822499  0.84194610    -0.02700
H2659       H  0.91670119  0.47222755  0.88316313     0.04700
C2660       C  0.90110296  0.50129988  0.91213293     0.20100
H2661       H  0.91724414  0.53118590  0.83065730     0.09800
C2662       C  0.91485660  0.50808622  0.93294588    -0.16100
C2663       C  0.90744759  0.50848792  0.95994433     0.02800
C2664       C  0.88571193  0.50179161  0.96661425    -0.11400
C2665       C  0.87212757  0.49480968  0.94548179    -0.01500
C2666       C  0.87958377  0.49466716  0.91849531    -0.06600
H2667       H  0.93146799  0.51321120  0.92808370     0.05800
H2668       H  0.85536720  0.48982156  0.94979843     0.09200
Br2669     Br  0.89717332  0.54093032  0.88314568    -0.06300
Br2670     Br  0.93183006  0.46112041  0.82917059    -0.03300
Br2671     Br  0.92844278  0.51803348  0.98614589    -0.00400
Br2672     Br  0.85949793  0.48608669  0.89071339    -0.04800
C2673       C  0.88622906  0.83400414  0.24631468    -0.12200
C2674       C  0.87269471  0.84925967  0.25413288     0.03300
C2675       C  0.88212563  0.86709576  0.25609869    -0.12700
C2676       C  0.90488728  0.86999757  0.25056502     0.18100
C2677       C  0.91880956  0.85459924  0.24545296    -0.09800
C2678       C  0.90943689  0.83680414  0.24329815    -0.02700
H2679       H  0.87134785  0.87896113  0.25999991     0.04700
C2680       C  0.91269010  0.88910389  0.24489607     0.20100
H2681       H  0.92016704  0.82523171  0.23768671     0.09800
C2682       C  0.92313812  0.89974936  0.26514835    -0.16100
C2683       C  0.93063845  0.91791900  0.25971969     0.02800
C2684       C  0.92777831  0.92560973  0.23338693    -0.11400
C2685       C  0.91695047  0.91476036  0.21339281    -0.01500
C2686       C  0.90944804  0.89677836  0.21895528    -0.06600
H2687       H  0.92536847  0.89391954  0.28526798     0.05800
H2688       H  0.91444561  0.92013622  0.19305015     0.09200
Br2689     Br  0.95029563  0.85746264  0.23878590    -0.06300
Br2690     Br  0.84094272  0.84737505  0.25891505    -0.03300
Br2691     Br  0.94366750  0.93140897  0.28959999    -0.00400
Br2692     Br  0.89497668  0.88306853  0.19029086    -0.04800
C2693       C  0.02290923  0.75797100  0.03944242    -0.12200
C2694       C  0.01276104  0.77472152  0.04834161     0.03300
C2695       C  0.99269386  0.77397750  0.06263479    -0.12700
C2696       C  0.98266161  0.75683921  0.06847370     0.18100
C2697       C  0.99273669  0.74015485  0.06002989    -0.09800
C2698       C  0.01285473  0.74079941  0.04575353    -0.02700
H2699       H  0.98495427  0.78681325  0.06954591     0.04700
C2700       C  0.96226441  0.75670769  0.08473849     0.20100
H2701       H  0.02023177  0.72784943  0.03876389     0.09800
C2702       C  0.94175562  0.75236863  0.07238301    -0.16100
C2703       C  0.92195619  0.75285388  0.08743223     0.02800
C2704       C  0.92283436  0.75771296  0.11515106    -0.11400
C2705       C  0.94346051  0.76200602  0.12734887    -0.01500
C2706       C  0.96313874  0.76150758  0.11236277    -0.06600
H2707       H  0.94115809  0.74895730  0.05092534     0.05800
H2708       H  0.94427153  0.76571532  0.14869906     0.09200
Br2709     Br  0.97954946  0.71629696  0.06751532    -0.06300
Br2710     Br  0.02558326  0.79900713  0.04291823    -0.03300
Br2711     Br  0.89424313  0.74844122  0.06869796    -0.00400
Br2712     Br  0.99085746  0.76715409  0.13050123    -0.04800
C2713       C  0.88460796  0.75708499  0.32168106    -0.12200
C2714       C  0.90103277  0.74461901  0.33208208     0.03300
C2715       C  0.90697466  0.74539196  0.35962086    -0.12700
C2716       C  0.89680682  0.75811087  0.37735086     0.18100
C2717       C  0.88024022  0.77018300  0.36742980    -0.09800
C2718       C  0.87434505  0.76964059  0.33997284    -0.02700
H2719       H  0.91973767  0.73602957  0.36730378     0.04700
C2720       C  0.90457578  0.75914127  0.40580600     0.20100
H2721       H  0.86162635  0.77927721  0.33301068     0.09800
C2722       C  0.92461485  0.76849917  0.41154326    -0.16100
C2723       C  0.93321418  0.76922025  0.43800090     0.02800
C2724       C  0.92160453  0.76024300  0.45950740    -0.11400
C2725       C  0.90127494  0.75104698  0.45344734    -0.01500
C2726       C  0.89276655  0.75047564  0.42698145    -0.06600
H2727       H  0.93375640  0.77515940  0.39518255     0.05800
H2728       H  0.89185566  0.74414081  0.46933559     0.09200
Br2729     Br  0.86550344  0.78794829  0.39048939    -0.06300
Br2730     Br  0.91635085  0.72609467  0.31073909    -0.03300
Br2731     Br  0.96126516  0.78210172  0.44229321    -0.00400
Br2732     Br  0.86519752  0.73739398  0.42057881    -0.04800
C2733       C  0.82136106  0.67864484  0.16161542    -0.12200
C2734       C  0.83774757  0.66553097  0.16918020     0.03300
C2735       C  0.83547843  0.64690587  0.16135337    -0.12700
C2736       C  0.81701125  0.64099175  0.14597068     0.18100
C2737       C  0.80034940  0.65406962  0.13879187    -0.09800
C2738       C  0.80264438  0.67278820  0.14665157    -0.02700
H2739       H  0.84823935  0.63695426  0.16725108     0.04700
C2740       C  0.81551459  0.62100319  0.13849868     0.20100
H2741       H  0.78990830  0.68280335  0.14092103     0.09800
C2742       C  0.81311513  0.60771178  0.15923517    -0.16100
C2743       C  0.81391544  0.58857945  0.15349314     0.02800
C2744       C  0.81690803  0.58245226  0.12646598    -0.11400
C2745       C  0.81885272  0.59578790  0.10569990    -0.01500
C2746       C  0.81863257  0.61488349  0.11154292    -0.06600
H2747       H  0.81103177  0.61227579  0.18009358     0.05800
H2748       H  0.82180983  0.59132706  0.08494885     0.09200
Br2749     Br  0.77399637  0.64701702  0.11896557    -0.06300
Br2750     Br  0.86329782  0.67228827  0.19075062    -0.03300
Br2751     Br  0.81033481  0.57154014  0.18320874    -0.00400
Br2752     Br  0.82501638  0.63186505  0.08244289    -0.04800
C2753       C  0.62713978  0.58711549  0.79385899    -0.12200
C2754       C  0.62675600  0.59365507  0.76669648     0.03300
C2755       C  0.63410490  0.61183942  0.76081202    -0.12700
C2756       C  0.64161802  0.62367900  0.78161372     0.18100
C2757       C  0.64135047  0.61741180  0.80863472    -0.09800
C2758       C  0.63436438  0.59933498  0.81450285    -0.02700
H2759       H  0.63419506  0.61668665  0.73996629     0.04700
C2760       C  0.65000333  0.64257924  0.77560139     0.20100
H2761       H  0.63442492  0.59488346  0.83554248     0.09800
C2762       C  0.63500113  0.65757216  0.77681244    -0.16100
C2763       C  0.64288801  0.67582731  0.77996918     0.02800
C2764       C  0.66617263  0.67924067  0.78149656    -0.11400
C2765       C  0.68111284  0.66440017  0.77723079    -0.01500
C2766       C  0.67319119  0.64611863  0.77467851    -0.06600
H2767       H  0.61712825  0.65492985  0.77746755     0.05800
H2768       H  0.69902654  0.66677456  0.77832491     0.09200
Br2769     Br  0.65030676  0.63320812  0.83832507    -0.06300
Br2770     Br  0.61758614  0.57838308  0.73663338    -0.03300
Br2771     Br  0.62112398  0.69538218  0.78347393    -0.00400
Br2772     Br  0.69458694  0.62616950  0.77348570    -0.04800
C2773       C  0.75091113  0.75586085  0.95013774    -0.12200
C2774       C  0.77420555  0.75296758  0.95364028     0.03300
C2775       C  0.78365040  0.75340078  0.97963843    -0.12700
C2776       C  0.77043298  0.75673285  0.00261725     0.18100
C2777       C  0.74738481  0.76037375  0.99923999    -0.09800
C2778       C  0.73781833  0.75997392  0.97315581    -0.02700
H2779       H  0.80150816  0.75116509  0.98197299     0.04700
C2780       C  0.78132611  0.75694150  0.02972659     0.20100
H2781       H  0.71997964  0.76234550  0.97096882     0.09800
C2782       C  0.78463726  0.77402967  0.04288153    -0.16100
C2783       C  0.79562422  0.77498170  0.06797080     0.02800
C2784       C  0.80342760  0.75851057  0.08070581    -0.11400
C2785       C  0.80056249  0.74139449  0.06708298    -0.01500
C2786       C  0.78962945  0.74053114  0.04182297    -0.06600
H2787       H  0.77892038  0.78677436  0.03332366     0.05800
H2788       H  0.80639769  0.72859132  0.07635328     0.09200
Br2789     Br  0.72823422  0.76515391  0.02977354    -0.06300
Br2790     Br  0.79448699  0.74934133  0.92385262    -0.03300
Br2791     Br  0.80067067  0.79945322  0.08260688    -0.00400
Br2792     Br  0.78576071  0.71661999  0.02487396    -0.04800
C2793       C  0.78488865  0.74950400  0.74769913    -0.12200
C2794       C  0.78380760  0.75444123  0.72009147     0.03300
C2795       C  0.80338409  0.75449531  0.70454075    -0.12700
C2796       C  0.82395981  0.74950649  0.71622996     0.18100
C2797       C  0.82496422  0.74437833  0.74376214    -0.09800
C2798       C  0.80544985  0.74447504  0.75933927    -0.02700
H2799       H  0.80266361  0.75875538  0.68343376     0.04700
C2800       C  0.84443903  0.75104321  0.69990911     0.20100
H2801       H  0.80635542  0.74090892  0.78071444     0.09800
C2802       C  0.85321239  0.76879460  0.69490144    -0.16100
C2803       C  0.87252276  0.77100353  0.67927672     0.02800
C2804       C  0.88320894  0.75515710  0.66808899    -0.11400
C2805       C  0.87461387  0.73732886  0.67380191    -0.01500
C2806       C  0.85533386  0.73519323  0.68955915    -0.06600
H2807       H  0.84503759  0.78098511  0.70336903     0.05800
H2808       H  0.88254863  0.72502138  0.66538589     0.09200
Br2809     Br  0.85274848  0.73806324  0.76112179    -0.06300
Br2810     Br  0.75636440  0.76244092  0.70343844    -0.03300
Br2811     Br  0.88384750  0.79593830  0.67526572    -0.00400
Br2812     Br  0.84414972  0.71048364  0.69588711    -0.04800
C2813       C  0.67078481  0.08151599  0.99934098    -0.12200
C2814       C  0.64805752  0.08700265  0.99732572     0.03300
C2815       C  0.64204289  0.10555342  0.00217935    -0.12700
C2816       C  0.65825059  0.11888853  0.00897560     0.18100
C2817       C  0.68051570  0.11319771  0.01328358    -0.09800
C2818       C  0.68658370  0.09458418  0.00877864    -0.02700
H2819       H  0.62486370  0.10987422  0.99880919     0.04700
C2820       C  0.65256451  0.13874675  0.00522846     0.20100
H2821       H  0.70406584  0.09071366  0.01059029     0.09800
C2822       C  0.64407909  0.14954641  0.02669417    -0.16100
C2823       C  0.63704014  0.16803219  0.02228980     0.02800
C2824       C  0.63843278  0.17585533  0.99588803    -0.11400
C2825       C  0.64738884  0.16484570  0.97476783    -0.01500
C2826       C  0.65432779  0.14658792  0.97921614    -0.06600
H2827       H  0.64271985  0.14352074  0.04680644     0.05800
H2828       H  0.64852373  0.17024935  0.95426251     0.09200
Br2829     Br  0.70354852  0.13081634  0.02226190    -0.06300
Br2830     Br  0.62442277  0.07014972  0.98733338    -0.03300
Br2831     Br  0.62635828  0.18174574  0.05321262    -0.00400
Br2832     Br  0.66548003  0.13256194  0.94875180    -0.04800
C2833       C  0.74529092  0.01112541  0.82313534    -0.12200
C2834       C  0.74942237  0.02777123  0.80846446     0.03300
C2835       C  0.76090766  0.02716598  0.78360478    -0.12700
C2836       C  0.76814354  0.01019228  0.77256331     0.18100
C2837       C  0.76311452  0.99351318  0.78642756    -0.09800
C2838       C  0.75187360  0.99408040  0.81147266    -0.02700
H2839       H  0.76409806  0.04001822  0.77271252     0.04700
C2840       C  0.78045542  0.01015752  0.74629781     0.20100
H2841       H  0.74890724  0.98116144  0.82226944     0.09800
C2842       C  0.80352133  0.01403614  0.74577033    -0.16100
C2843       C  0.81567819  0.01355021  0.72127109     0.02800
C2844       C  0.80472587  0.00894871  0.69661171    -0.11400
C2845       C  0.78142839  0.00567440  0.69734835    -0.01500
C2846       C  0.76934938  0.00642517  0.72171441    -0.06600
H2847       H  0.81216796  0.01720933  0.76458979     0.05800
H2848       H  0.77241964  0.00258409  0.67875448     0.09200
Br2849     Br  0.77159592  0.96964339  0.77216234    -0.06300
Br2850     Br  0.73886984  0.05169970  0.82046276    -0.03300
Br2851     Br  0.84720860  0.01833553  0.72337403    -0.00400
Br2852     Br  0.73754962  0.00261073  0.72046218    -0.04800
C2853       C  0.79014110  0.01085455  0.02774608    -0.12200
C2854       C  0.80041872  0.02801894  0.03444677     0.03300
C2855       C  0.81893271  0.02827658  0.05186694    -0.12700
C2856       C  0.82760136  0.01165094  0.06239924     0.18100
C2857       C  0.81743578  0.99456599  0.05571468    -0.09800
C2858       C  0.79892279  0.99426891  0.03843668    -0.02700
H2859       H  0.82688882  0.04144095  0.05681015     0.04700
C2860       C  0.84747862  0.01225202  0.08002504     0.20100
H2861       H  0.79123540  0.98099418  0.03349147     0.09800
C2862       C  0.84473173  0.01024396  0.10813951    -0.16100
C2863       C  0.86335157  0.00950013  0.12529152     0.02800
C2864       C  0.88508091  0.01061661  0.11417637    -0.11400
C2865       C  0.88775785  0.01342060  0.08617396    -0.01500
C2866       C  0.86912655  0.01419280  0.06904821    -0.06600
H2867       H  0.82805461  0.00907959  0.11668779     0.05800
H2868       H  0.90440991  0.01434251  0.07748341     0.09200
Br2869     Br  0.82838305  0.97127110  0.06945378    -0.06300
Br2870     Br  0.79154173  0.05126751  0.01851584    -0.03300
Br2871     Br  0.85818181  0.00779995  0.16371866    -0.00400
Br2872     Br  0.87408648  0.01701179  0.03075555    -0.04800
C2873       C  0.73607672  0.92896075  0.90509028    -0.12200
C2874       C  0.73612212  0.92290949  0.87770976     0.03300
C2875       C  0.73709260  0.90381648  0.87163446    -0.12700
C2876       C  0.73801907  0.89047432  0.89239373     0.18100
C2877       C  0.73897382  0.89646661  0.91963640    -0.09800
C2878       C  0.73809357  0.91554607  0.92577801    -0.02700
H2879       H  0.73665145  0.89932355  0.85059828     0.04700
C2880       C  0.73642333  0.87042723  0.88524586     0.20100
H2881       H  0.73819309  0.91986924  0.94689330     0.09800
C2882       C  0.75525418  0.86090080  0.87527671    -0.16100
C2883       C  0.75385387  0.84204619  0.86760973     0.02800
C2884       C  0.73318185  0.83246392  0.86962298    -0.11400
C2885       C  0.71448425  0.84212937  0.87993842    -0.01500
C2886       C  0.71593830  0.86087054  0.88755860    -0.06600
H2887       H  0.77113637  0.86813909  0.87363787     0.05800
H2888       H  0.69842765  0.83517056  0.88165658     0.09200
Br2889     Br  0.74089198  0.87901675  0.94906404    -0.06300
Br2890     Br  0.73582623  0.93999082  0.84772197    -0.03300
Br2891     Br  0.78100788  0.82999698  0.85630542    -0.00400
Br2892     Br  0.68924617  0.87305531  0.90016602    -0.04800
C2893       C  0.62890405  0.67647525  0.48776758    -0.12200
C2894       C  0.63067887  0.66941824  0.51448421     0.03300
C2895       C  0.63859565  0.65120968  0.51870956    -0.12700
C2896       C  0.64465112  0.63986708  0.49665697     0.18100
C2897       C  0.64222634  0.64664370  0.47005763    -0.09800
C2898       C  0.63468915  0.66480504  0.46582409    -0.02700
H2899       H  0.64039953  0.64598737  0.53924525     0.04700
C2900       C  0.65399899  0.62109582  0.50125290     0.20100
H2901       H  0.63319660  0.66979606  0.44511810     0.09800
C2902       C  0.63943727  0.60580067  0.50202663    -0.16100
C2903       C  0.64781246  0.58762081  0.50076465     0.02800
C2904       C  0.67115050  0.58454567  0.49935299    -0.11400
C2905       C  0.68576800  0.59985992  0.50051034    -0.01500
C2906       C  0.67732005  0.61808592  0.50096233    -0.06600
H2907       H  0.62147953  0.60803631  0.50189836     0.05800
H2908       H  0.70368044  0.59771670  0.49869760     0.09200
Br2909     Br  0.64888824  0.63145597  0.43887840    -0.06300
Br2910     Br  0.62414483  0.68424257  0.54591799    -0.03300
Br2911     Br  0.62664250  0.56746508  0.49917120    -0.00400
Br2912     Br  0.69797820  0.63850432  0.49802866    -0.04800
C2913       C  0.67800500  0.75855041  0.37221924    -0.12200
C2914       C  0.68011558  0.76872712  0.34779494     0.03300
C2915       C  0.70078586  0.76939458  0.33448451    -0.12700
C2916       C  0.71931354  0.75957669  0.34453136     0.18100
C2917       C  0.71748685  0.74970042  0.36899285    -0.09800
C2918       C  0.69705027  0.74937873  0.38272230    -0.02700
H2919       H  0.70212520  0.77674757  0.31532263     0.04700
C2920       C  0.73939177  0.75781841  0.32742622     0.20100
H2921       H  0.69600741  0.74155710  0.40150301     0.09800
C2922       C  0.75947270  0.76647790  0.33513858    -0.16100
C2923       C  0.77859602  0.76506392  0.31878004     0.02800
C2924       C  0.77746803  0.75518409  0.29386729    -0.11400
C2925       C  0.75740887  0.74600704  0.28692396    -0.01500
C2926       C  0.73859775  0.74712931  0.30352504    -0.06600
H2927       H  0.76026775  0.77426930  0.35400620     0.05800
H2928       H  0.75607941  0.73816471  0.26815200     0.09200
Br2929     Br  0.74199325  0.73538509  0.38329373    -0.06300
Br2930     Br  0.65522589  0.78005996  0.32956242    -0.03300
Br2931     Br  0.80573507  0.77605409  0.33247743    -0.00400
Br2932     Br  0.71227232  0.73345451  0.29300225    -0.04800
C2933       C  0.62571208  0.74932232  0.57387681    -0.12200
C2934       C  0.61638754  0.73696682  0.59340016     0.03300
C2935       C  0.62477725  0.73673508  0.62009487    -0.12700
C2936       C  0.64236852  0.74852578  0.62799138     0.18100
C2937       C  0.65205294  0.76041347  0.60861611    -0.09800
C2938       C  0.64367055  0.76085256  0.58213528    -0.02700
H2939       H  0.61738133  0.72740712  0.63490053     0.04700
C2940       C  0.65050381  0.74842217  0.65647291     0.20100
H2941       H  0.65159573  0.77026436  0.56787497     0.09800
C2942       C  0.66289610  0.73320326  0.66608001    -0.16100
C2943       C  0.67207733  0.73324084  0.69236013     0.02800
C2944       C  0.66917494  0.74899854  0.70954537    -0.11400
C2945       C  0.65613782  0.76396891  0.69984735    -0.01500
C2946       C  0.64667757  0.76367669  0.67384689    -0.06600
H2947       H  0.66554675  0.72125088  0.65296434     0.05800
H2948       H  0.65321968  0.77609354  0.71251440     0.09200
Br2949     Br  0.67737310  0.77591345  0.61710752    -0.06300
Br2950     Br  0.59217607  0.72010179  0.58585819    -0.03300
Br2951     Br  0.68723278  0.71085268  0.70342068    -0.00400
Br2952     Br  0.62816537  0.78428716  0.66312687    -0.04800
C2953       C  0.64132776  0.08126852  0.27699336    -0.12200
C2954       C  0.66354690  0.08708474  0.28254043     0.03300
C2955       C  0.66983017  0.10559209  0.27804039    -0.12700
C2956       C  0.65459236  0.11843529  0.26729873     0.18100
C2957       C  0.63353251  0.11212226  0.25825806    -0.09800
C2958       C  0.62695934  0.09367272  0.26329340    -0.02700
H2959       H  0.68634290  0.11022097  0.28429184     0.04700
C2960       C  0.65972026  0.13850577  0.27025476     0.20100
H2961       H  0.61010431  0.08941025  0.25795645     0.09800
C2962       C  0.67716799  0.14664912  0.25529038    -0.16100
C2963       C  0.68490156  0.16470445  0.26138872     0.02800
C2964       C  0.67515083  0.17486050  0.28321293    -0.11400
C2965       C  0.65682551  0.16677648  0.29694579    -0.01500
C2966       C  0.64936405  0.14886890  0.29097738    -0.06600
H2967       H  0.68529226  0.13866568  0.23938239     0.05800
H2968       H  0.64862508  0.17403189  0.31350006     0.09200
Br2969     Br  0.61287824  0.12860812  0.24056023    -0.06300
Br2970     Br  0.68629617  0.07059272  0.29600253    -0.03300
Br2971     Br  0.70909093  0.17387674  0.23945742    -0.00400
Br2972     Br  0.62647922  0.13859440  0.31400522    -0.04800
C2973       C  0.67536455  0.00865535  0.41527542    -0.12200
C2974       C  0.68639352  0.02493178  0.42436868     0.03300
C2975       C  0.70703442  0.02351560  0.43744814    -0.12700
C2976       C  0.71686038  0.00610467  0.44200230     0.18100
C2977       C  0.70547749  0.98977961  0.43425479    -0.09800
C2978       C  0.68487404  0.99112977  0.42084630    -0.02700
H2979       H  0.71533061  0.03605895  0.44454928     0.04700
C2980       C  0.73750096  0.00541313  0.45816060     0.20100
H2981       H  0.67663558  0.97848848  0.41403871     0.09800
C2982       C  0.73533383  0.00553190  0.48641873    -0.16100
C2983       C  0.75416516  0.00646319  0.50300750     0.02800
C2984       C  0.77567893  0.00742851  0.49126609    -0.11400
C2985       C  0.77796209  0.00676220  0.46288454    -0.01500
C2986       C  0.75894660  0.00594402  0.44622233    -0.06600
H2987       H  0.71883312  0.00502994  0.49560081     0.05800
H2988       H  0.79446650  0.00725247  0.45372784     0.09200
Br2989     Br  0.71748017  0.96551409  0.44175791    -0.06300
Br2990     Br  0.67369627  0.04941775  0.42079257    -0.03300
Br2991     Br  0.74943974  0.00532712  0.54158027    -0.00400
Br2992     Br  0.76292923  0.00597205  0.40753995    -0.04800
C2993       C  0.68060226  0.00782955  0.07117327    -0.12200
C2994       C  0.67819611  0.02489984  0.08541761     0.03300
C2995       C  0.67122061  0.02484515  0.11255382    -0.12700
C2996       C  0.66679703  0.00808047  0.12604280     0.18100
C2997       C  0.66963672  0.99106414  0.11218737    -0.09800
C2998       C  0.67632800  0.99104170  0.08492570    -0.02700
H2999       H  0.66885560  0.03797910  0.12309770     0.04700
C3000       C  0.65764787  0.00869057  0.15389336     0.20100
H3001       H  0.67825994  0.97783567  0.07445525     0.09800
C3002       C  0.63514002  0.01365866  0.15760463    -0.16100
C3003       C  0.62556266  0.01398498  0.18356652     0.02800
C3004       C  0.63857140  0.00876040  0.20637038    -0.11400
C3005       C  0.66125691  0.00410365  0.20248300    -0.01500
C3006       C  0.67092003  0.00441947  0.17663133    -0.06600
H3007       H  0.62494370  0.01722299  0.14013769     0.05800
H3008       H  0.67170881  0.00057931  0.21974030     0.09200
Br3009     Br  0.66392511  0.96758266  0.12949728    -0.06300
Br3010     Br  0.68250412  0.04886474  0.06874449    -0.03300
Br3011     Br  0.59457098  0.02112083  0.18603705    -0.00400
Br3012     Br  0.70247359  0.99980651  0.17351382    -0.04800
C3013       C  0.56782590  0.93105734  0.37355503    -0.12200
C3014       C  0.57076222  0.92561940  0.40103341     0.03300
C3015       C  0.56833534  0.90692730  0.40840360    -0.12700
C3016       C  0.56285763  0.89338571  0.38906298     0.18100
C3017       C  0.55829851  0.89884087  0.36215561    -0.09800
C3018       C  0.56086877  0.91752286  0.35458272    -0.02700
H3019       H  0.57158517  0.90279606  0.42921924     0.04700
C3020       C  0.56486078  0.87358465  0.39679046     0.20100
H3021       H  0.55828165  0.92129530  0.33349787     0.09800
C3022       C  0.54902410  0.86542822  0.41410122    -0.16100
C3023       C  0.55151351  0.84697448  0.42309607     0.02800
C3024       C  0.57019380  0.83621734  0.41432320    -0.11400
C3025       C  0.58624433  0.84490582  0.39750623    -0.01500
C3026       C  0.58388175  0.86336125  0.38916376    -0.06600
H3027       H  0.53477982  0.87356093  0.42089859     0.05800
H3028       H  0.60111153  0.83748797  0.39104216     0.09200
Br3029     Br  0.54918407  0.88117398  0.33498198    -0.06300
Br3030     Br  0.57782422  0.94267120  0.42990616    -0.03300
Br3031     Br  0.52880300  0.83801494  0.44750942    -0.00400
Br3032     Br  0.60799264  0.87452744  0.36905645    -0.04800
C3033       C  0.50633454  0.00360692  0.57689817    -0.12200
C3034       C  0.49521632  0.01078692  0.55375772     0.03300
C3035       C  0.50614007  0.01104963  0.52849658    -0.12700
C3036       C  0.52787738  0.00389747  0.52555508     0.18100
C3037       C  0.53883033  0.99638562  0.54833307    -0.09800
C3038       C  0.52811918  0.99631447  0.57364468    -0.02700
H3039       H  0.49751599  0.01664848  0.51093061     0.04700
C3040       C  0.53906670  0.00472926  0.49871038     0.20100
H3041       H  0.53705032  0.99068665  0.59096318     0.09800
C3042       C  0.54847318  0.02163614  0.49007684    -0.16100
C3043       C  0.55936757  0.02294908  0.46493962     0.02800
C3044       C  0.56091579  0.00716139  0.44792584    -0.11400
C3045       C  0.55164103  0.99020745  0.45668851    -0.01500
C3046       C  0.54067632  0.98891916  0.48179327    -0.06600
H3047       H  0.54747895  0.03382400  0.50306492     0.05800
H3048       H  0.55230666  0.97807947  0.44358375     0.09200
Br3049     Br  0.56859222  0.98636051  0.54582090    -0.06300
Br3050     Br  0.46466959  0.01919683  0.55466866    -0.03300
Br3051     Br  0.57281864  0.04634486  0.45539334    -0.00400
Br3052     Br  0.52747133  0.96551517  0.49175317    -0.04800
C3053       C  0.53150141  0.00360341  0.79056807    -0.12200
C3054       C  0.53413878  0.01798602  0.80970810     0.03300
C3055       C  0.55403618  0.01927840  0.82444950    -0.12700
C3056       C  0.57148246  0.00662749  0.81960279     0.18100
C3057       C  0.56866099  0.99207784  0.80071026    -0.09800
C3058       C  0.54856670  0.99052417  0.78654126    -0.02700
H3059       H  0.55612285  0.03035834  0.83923943     0.04700
C3060       C  0.59229647  0.00826171  0.83507894     0.20100
H3061       H  0.54681195  0.97983600  0.77107309     0.09800
C3062       C  0.59686383  0.99468053  0.85465968    -0.16100
C3063       C  0.61676501  0.99517005  0.86928270     0.02800
C3064       C  0.63234512  0.00948437  0.86433808    -0.11400
C3065       C  0.62760073  0.02337992  0.84519431    -0.01500
C3066       C  0.60770049  0.02276460  0.83030719    -0.06600
H3067       H  0.58484089  0.98367078  0.85856030     0.05800
H3068       H  0.63944213  0.03459210  0.84173386     0.09200
Br3069     Br  0.59242609  0.97502747  0.79202357    -0.06300
Br3070     Br  0.51129544  0.03642766  0.81531260    -0.03300
Br3071     Br  0.62113263  0.97669371  0.89698358    -0.00400
Br3072     Br  0.60259186  0.04153694  0.80324559    -0.04800
C3073       C  0.29440032  0.01263042  0.52342863    -0.12200
C3074       C  0.30629328  0.02956127  0.52536968     0.03300
C3075       C  0.32521778  0.03068138  0.54200914    -0.12700
C3076       C  0.33266660  0.01502819  0.55640918     0.18100
C3077       C  0.32116468  0.99795244  0.55377489    -0.09800
C3078       C  0.30217842  0.99688885  0.53737695    -0.02700
H3079       H  0.33408152  0.04381229  0.54385170     0.04700
C3080       C  0.35153104  0.01683796  0.57545863     0.20100
H3081       H  0.29333612  0.98373042  0.53565416     0.09800
C3082       C  0.34732235  0.01413532  0.60317493    -0.16100
C3083       C  0.36487993  0.01333322  0.62175156     0.02800
C3084       C  0.38712482  0.01522266  0.61253798    -0.11400
C3085       C  0.39120389  0.01951231  0.58517079    -0.01500
C3086       C  0.37356008  0.02038974  0.56657279    -0.06600
H3087       H  0.33028663  0.01214871  0.61025252     0.05800
H3088       H  0.40823361  0.02134390  0.57799441     0.09200
Br3089     Br  0.33092673  0.97559755  0.57171369    -0.06300
Br3090     Br  0.29833912  0.05113416  0.50450250    -0.03300
Br3091     Br  0.35732937  0.01020276  0.65939449    -0.00400
Br3092     Br  0.38066010  0.02539501  0.52926383    -0.04800
C3093       C  0.50642507  0.26035162  0.70413942    -0.12200
C3094       C  0.51413499  0.27684220  0.71703905     0.03300
C3095       C  0.52452549  0.27584695  0.74255284    -0.12700
C3096       C  0.52803473  0.25863967  0.75528013     0.18100
C3097       C  0.52080437  0.24221275  0.74234642    -0.09800
C3098       C  0.50983379  0.24316288  0.71722549    -0.02700
H3099       H  0.53001441  0.28855704  0.75247439     0.04700
C3100       C  0.53872910  0.25804760  0.78239331     0.20100
H3101       H  0.50447194  0.23033224  0.70754513     0.09800
C3102       C  0.52524532  0.25964806  0.80559009    -0.16100
C3103       C  0.53456458  0.25831594  0.83161008     0.02800
C3104       C  0.55782917  0.25561041  0.83473831    -0.11400
C3105       C  0.57142072  0.25444238  0.81149154    -0.01500
C3106       C  0.56198011  0.25539616  0.78541814    -0.06600
H3107       H  0.50735105  0.26173286  0.80341841     0.05800
H3108       H  0.58930270  0.25226997  0.81361908     0.09200
Br3109     Br  0.52609641  0.21817119  0.75810082    -0.06300
Br3110     Br  0.51057987  0.30122310  0.70154286    -0.03300
Br3111     Br  0.51489830  0.26094783  0.86224272    -0.00400
Br3112     Br  0.58119825  0.25236822  0.75448440    -0.04800
C3113       C  0.52971503  0.25634269  0.49211514    -0.12200
C3114       C  0.54868651  0.26718284  0.49826995     0.03300
C3115       C  0.56788250  0.26563684  0.48230296    -0.12700
C3116       C  0.56846045  0.25341926  0.46004747     0.18100
C3117       C  0.54929066  0.24281178  0.45353060    -0.09800
C3118       C  0.53006367  0.24428089  0.46968535    -0.02700
H3119       H  0.58263315  0.27366907  0.48764524     0.04700
C3120       C  0.58954199  0.25157901  0.44464783     0.20100
H3121       H  0.51559887  0.23567124  0.46518486     0.09800
C3122       C  0.60135063  0.23465512  0.44538246    -0.16100
C3123       C  0.62174456  0.23269417  0.43165962     0.02800
C3124       C  0.63070920  0.24796415  0.41733107    -0.11400
C3125       C  0.61911224  0.26498443  0.41717140    -0.01500
C3126       C  0.59860002  0.26683950  0.43046224    -0.06600
H3127       H  0.59471842  0.22298208  0.45680044     0.05800
H3128       H  0.62568146  0.27674213  0.40586989     0.09200
Br3129     Br  0.54867047  0.22613996  0.42298846    -0.06300
Br3130     Br  0.54967210  0.28328076  0.52946759    -0.03300
Br3131     Br  0.63715615  0.20927663  0.43422022    -0.00400
Br3132     Br  0.58305981  0.29018598  0.42747314    -0.04800
C3133       C  0.49765006  0.18057349  0.62886676    -0.12200
C3134       C  0.51144312  0.16844571  0.61326547     0.03300
C3135       C  0.51378380  0.14972216  0.62083556    -0.12700
C3136       C  0.50298678  0.14266287  0.64386291     0.18100
C3137       C  0.49074506  0.15485466  0.66058537    -0.09800
C3138       C  0.48811351  0.17353155  0.65304236    -0.02700
H3139       H  0.52342347  0.14037998  0.60805198     0.04700
C3140       C  0.50238967  0.12225688  0.64822501     0.20100
H3141       H  0.47788053  0.18238456  0.66585841     0.09800
C3142       C  0.51654295  0.11387432  0.66735357    -0.16100
C3143       C  0.51508483  0.09469063  0.67290241     0.02800
C3144       C  0.49896922  0.08350814  0.65914609    -0.11400
C3145       C  0.48571668  0.09206768  0.63894519    -0.01500
C3146       C  0.48726126  0.11112383  0.63355687    -0.06600
H3147       H  0.52854845  0.12237071  0.67832312     0.05800
H3148       H  0.47336632  0.08410422  0.62774067     0.09200
Br3149     Br  0.47632492  0.14636493  0.69316465    -0.06300
Br3150     Br  0.52700354  0.17565195  0.58074181    -0.03300
Br3151     Br  0.53571424  0.08517086  0.69944982    -0.00400
Br3152     Br  0.46747847  0.12154269  0.60679094    -0.04800
C3153       C  0.30570367  0.00814521  0.19378098    -0.12200
C3154       C  0.28371879  0.01507489  0.19619728     0.03300
C3155       C  0.27278316  0.01444146  0.22128124    -0.12700
C3156       C  0.28333537  0.00670286  0.24410035     0.18100
C3157       C  0.30534265  0.99971689  0.24163623    -0.09800
C3158       C  0.31644597  0.00067515  0.21661134    -0.02700
H3159       H  0.25590198  0.01988176  0.22298344     0.04700
C3160       C  0.27123302  0.00645661  0.27033483     0.20100
H3161       H  0.33322905  0.99504781  0.21475304     0.09800
C3162       C  0.26407600  0.98945283  0.28146154    -0.16100
C3163       C  0.25322555  0.98882116  0.30676597     0.02800
C3164       C  0.24934604  0.00554110  0.32136325    -0.11400
C3165       C  0.25591626  0.02255636  0.30947475    -0.01500
C3166       C  0.26665560  0.02312475  0.28429809    -0.06600
H3167       H  0.26731755  0.97657810  0.27059492     0.05800
H3168       H  0.25300150  0.03560037  0.32003938     0.09200
Br3169     Br  0.32089705  0.98870141  0.27170905    -0.06300
Br3170     Br  0.26802297  0.02558203  0.16579309    -0.03300
Br3171     Br  0.24579471  0.96463039  0.32078511    -0.00400
Br3172     Br  0.27553153  0.04701686  0.27033211    -0.04800
C3173       C  0.52686994  0.00706827  0.23746718    -0.12200
C3174       C  0.52167666  0.99201451  0.22017201     0.03300
C3175       C  0.50279255  0.99294456  0.20342256    -0.12700
C3176       C  0.48886874  0.00871344  0.20365049     0.18100
C3177       C  0.49428943  0.02389677  0.22063594    -0.09800
C3178       C  0.51328537  0.02302774  0.23720489    -0.02700
H3179       H  0.49874539  0.98119516  0.19043960     0.04700
C3180       C  0.46825096  0.00861390  0.18701699     0.20100
H3181       H  0.51712082  0.03465868  0.25051431     0.09800
C3182       C  0.44733970  0.00867424  0.20010052    -0.16100
C3183       C  0.42744978  0.00773120  0.18513428     0.02800
C3184       C  0.42836985  0.00653099  0.15659050    -0.11400
C3185       C  0.44927448  0.00637750  0.14351333    -0.01500
C3186       C  0.46913832  0.00747655  0.15845409    -0.06600
H3187       H  0.44652388  0.00912555  0.22209554     0.05800
H3188       H  0.45013866  0.00552767  0.12153599     0.09200
Br3189     Br  0.47638327  0.04611167  0.22186849    -0.06300
Br3190     Br  0.54013510  0.97015724  0.21813752    -0.03300
Br3191     Br  0.39963690  0.00672091  0.20468855    -0.00400
Br3192     Br  0.49698088  0.00772889  0.13890763    -0.04800
C3193       C  0.17085210  0.00752205  0.91894050    -0.12200
C3194       C  0.17526825  0.02196292  0.93748309     0.03300
C3195       C  0.19535135  0.02196171  0.95187378    -0.12700
C3196       C  0.21118454  0.00782693  0.94765432     0.18100
C3197       C  0.20628642  0.99288826  0.93003806    -0.09800
C3198       C  0.18604891  0.99276258  0.91597174    -0.02700
H3199       H  0.19880816  0.03314835  0.96610468     0.04700
C3200       C  0.23253592  0.00872851  0.96223310     0.20100
H3201       H  0.18272790  0.98166177  0.90153082     0.09800
C3202       C  0.23724071  0.99495595  0.98148828    -0.16100
C3203       C  0.25720629  0.99536246  0.99600048     0.02800
C3204       C  0.27270308  0.00980931  0.99134589    -0.11400
C3205       C  0.26787548  0.02383521  0.97248891    -0.01500
C3206       C  0.24789353  0.02334205  0.95776554    -0.06600
H3207       H  0.22517546  0.98398902  0.98545965     0.05800
H3208       H  0.27961660  0.03515409  0.96929975     0.09200
Br3209     Br  0.22732725  0.97320608  0.92288153    -0.06300
Br3210     Br  0.15416640  0.04159490  0.94425019    -0.03300
Br3211     Br  0.26166911  0.97665802  0.02336343    -0.00400
Br3212     Br  0.24242795  0.04273068  0.93171435    -0.04800
C3213       C  0.42499906  0.00566966  0.81761225    -0.12200
C3214       C  0.40315795  0.01182693  0.82442500     0.03300
C3215       C  0.39658298  0.01281477  0.85167226    -0.12700
C3216       C  0.41131703  0.00781128  0.87256468     0.18100
C3217       C  0.43302386  0.00162228  0.86596415    -0.09800
C3218       C  0.43966680  0.00051628  0.83870165    -0.02700
H3219       H  0.37971331  0.01726772  0.85661699     0.04700
C3220       C  0.40323351  0.00817666  0.90097710     0.20100
H3221       H  0.45655332  0.99598727  0.83402224     0.09800
C3222       C  0.39979341  0.99124483  0.91455701    -0.16100
C3223       C  0.39153295  0.99089581  0.94115350     0.02800
C3224       C  0.38630405  0.00777468  0.95454586    -0.11400
C3225       C  0.39005960  0.02474131  0.94100699    -0.01500
C3226       C  0.39832069  0.02504590  0.91438931    -0.06600
H3227       H  0.40365631  0.97821741  0.90440036     0.05800
H3228       H  0.38633447  0.03782773  0.95108049     0.09200
Br3229     Br  0.45435016  0.99520004  0.89361051    -0.06300
Br3230     Br  0.38088085  0.01805316  0.79776998    -0.03300
Br3231     Br  0.38936745  0.96704070  0.95867423    -0.00400
Br3232     Br  0.40299990  0.04879484  0.89737419    -0.04800
C3233       C  0.42753074  0.25404331  0.12314527    -0.12200
C3234       C  0.44238346  0.23900521  0.12689992     0.03300
C3235       C  0.46192468  0.23789072  0.11131656    -0.12700
C3236       C  0.46704312  0.25180277  0.09234045     0.18100
C3237       C  0.45245447  0.26704642  0.08902653    -0.09800
C3238       C  0.43286258  0.26810150  0.10446807    -0.02700
H3239       H  0.47325418  0.22625128  0.11414328     0.04700
C3240       C  0.48721934  0.24997735  0.07536450     0.20100
H3241       H  0.42179846  0.27995798  0.10199499     0.09800
C3242       C  0.48454510  0.24539313  0.04788009    -0.16100
C3243       C  0.50294280  0.24506915  0.03042847     0.02800
C3244       C  0.52447076  0.24907752  0.04058276    -0.11400
C3245       C  0.52733814  0.25286104  0.06834072    -0.01500
C3246       C  0.50880176  0.25354061  0.08574347    -0.06600
H3247       H  0.46797782  0.24251554  0.03986885     0.05800
H3248       H  0.54385043  0.25610748  0.07621059     0.09200
Br3249     Br  0.45901372  0.28693212  0.06417890    -0.06300
Br3250     Br  0.43768598  0.22062935  0.15464108    -0.03300
Br3251     Br  0.49783568  0.23902801  0.99291311    -0.00400
Br3252     Br  0.51347051  0.26074776  0.12288472    -0.04800
C3253       C  0.41801831  0.25419629  0.46738868    -0.12200
C3254       C  0.43197186  0.25708546  0.44456318     0.03300
C3255       C  0.42265335  0.25771789  0.41852134    -0.12700
C3256       C  0.39961703  0.25517827  0.41457208     0.18100
C3257       C  0.38571971  0.25169005  0.43707765    -0.09800
C3258       C  0.39494848  0.25121652  0.46326578    -0.02700
H3259       H  0.43349346  0.25992491  0.40114627     0.04700
C3260       C  0.39076021  0.25551448  0.38657184     0.20100
H3261       H  0.38399656  0.24885954  0.48048785     0.09800
C3262       C  0.38664222  0.23861809  0.37315683    -0.16100
C3263       C  0.38036995  0.23833092  0.34574663     0.02800
C3264       C  0.37836629  0.25525668  0.33121645    -0.11400
C3265       C  0.38156133  0.27218126  0.34517488    -0.01500
C3266       C  0.38779885  0.27240250  0.37256095    -0.06600
H3267       H  0.38859334  0.22558103  0.38401043     0.05800
H3268       H  0.37977863  0.28532832  0.33456935     0.09200
Br3269     Br  0.35407003  0.24795733  0.43286587    -0.06300
Br3270     Br  0.46404073  0.25883608  0.44727097    -0.03300
Br3271     Br  0.37369958  0.21446176  0.32999849    -0.00400
Br3272     Br  0.39234363  0.29606027  0.38995966    -0.04800
C3273       C  0.31563667  0.17990336  0.16379188    -0.12200
C3274       C  0.31693627  0.17459588  0.13612358     0.03300
C3275       C  0.31553772  0.15576026  0.12885645    -0.12700
C3276       C  0.31236375  0.14192518  0.14855252     0.18100
C3277       C  0.30923180  0.14723590  0.17586258    -0.09800
C3278       C  0.31086007  0.16609431  0.18328666    -0.02700
H3279       H  0.31752929  0.15180992  0.10772224     0.04700
C3280       C  0.31493205  0.12213085  0.14039657     0.20100
H3281       H  0.30958282  0.16981514  0.20458545     0.09800
C3282       C  0.33651709  0.11555814  0.13463378    -0.16100
C3283       C  0.34000606  0.09725071  0.12585355     0.02800
C3284       C  0.32165658  0.08500908  0.12263231    -0.11400
C3285       C  0.29990262  0.09170197  0.12785763    -0.01500
C3286       C  0.29648090  0.11011653  0.13685821    -0.06600
H3287       H  0.35075889  0.12483974  0.13669799     0.05800
H3288       H  0.28560594  0.08256759  0.12516212     0.09200
Br3289     Br  0.30412745  0.12911980  0.20384995    -0.06300
Br3290     Br  0.32031260  0.19230279  0.10714202    -0.03300
Br3291     Br  0.37010736  0.09024455  0.11657308    -0.00400
Br3292     Br  0.26649076  0.11855357  0.14358583    -0.04800
C3293       C  0.17393923  0.17572531  0.79457384    -0.12200
C3294       C  0.17563095  0.16824877  0.76792642     0.03300
C3295       C  0.16800308  0.15007314  0.76266108    -0.12700
C3296       C  0.15848465  0.13928504  0.78337665     0.18100
C3297       C  0.15632469  0.14679251  0.80960134    -0.09800
C3298       C  0.16395427  0.16474709  0.81496731    -0.02700
H3299       H  0.16961767  0.14428026  0.74240037     0.04700
C3300       C  0.15217261  0.11973974  0.77839478     0.20100
H3301       H  0.16249907  0.16991391  0.83559610     0.09800
C3302       C  0.16851421  0.10593235  0.78192921    -0.16100
C3303       C  0.16236138  0.08721901  0.78448776     0.02800
C3304       C  0.13953001  0.08219890  0.78333613    -0.11400
C3305       C  0.12346241  0.09582715  0.77718061    -0.01500
C3306       C  0.12961190  0.11455579  0.77493910    -0.06600
H3307       H  0.18593839  0.10985673  0.78438922     0.05800
H3308       H  0.10587415  0.09211828  0.77613880     0.09200
Br3309     Br  0.14387362  0.13273486  0.83919576    -0.06300
Br3310     Br  0.18735889  0.18196717  0.73759683    -0.03300
Br3311     Br  0.18565157  0.06917795  0.79017560    -0.00400
Br3312     Br  0.10646379  0.13272692  0.76969752    -0.04800
C3313       C  0.30910968  0.25435808  0.08579897    -0.12200
C3314       C  0.32070754  0.24849226  0.06216008     0.03300
C3315       C  0.30966595  0.24822788  0.03686651    -0.12700
C3316       C  0.28722370  0.25390196  0.03446766     0.18100
C3317       C  0.27564085  0.25961872  0.05788394    -0.09800
C3318       C  0.28650214  0.25980191  0.08309929    -0.02700
H3319       H  0.31875620  0.24389760  0.01886998     0.04700
C3320       C  0.27606386  0.25392657  0.00745624     0.20100
H3321       H  0.27707934  0.26423963  0.10078351     0.09800
C3322       C  0.26681732  0.23733480  0.99734181    -0.16100
C3323       C  0.25589714  0.23691920  0.97210269     0.02800
C3324       C  0.25428757  0.25329332  0.95626084    -0.11400
C3325       C  0.26292580  0.27003914  0.96684714    -0.01500
C3326       C  0.27376472  0.27043286  0.99218435    -0.06600
H3327       H  0.26789568  0.22468663  0.00928712     0.05800
H3328       H  0.26177878  0.28275765  0.95506980     0.09200
Br3329     Br  0.24487912  0.26734390  0.05626708    -0.06300
Br3330     Br  0.35189829  0.24195595  0.06250205    -0.03300
Br3331     Br  0.24224007  0.21386983  0.96104075    -0.00400
Br3332     Br  0.28552323  0.29372438  0.00508002    -0.04800
C3333       C  0.03938193  0.26182606  0.99908912    -0.12200
C3334       C  0.05983725  0.26512298  0.01259772     0.03300
C3335       C  0.07986952  0.26472518  0.99810868    -0.12700
C3336       C  0.07981899  0.26102503  0.97022906     0.18100
C3337       C  0.05938818  0.25868759  0.95633970    -0.09800
C3338       C  0.03919272  0.25917518  0.97083857    -0.02700
H3339       H  0.09558909  0.26683159  0.00872025     0.04700
C3340       C  0.10135383  0.25876113  0.95628094     0.20100
H3341       H  0.02350811  0.25678921  0.96029460     0.09800
C3342       C  0.11050833  0.24085809  0.95376723    -0.16100
C3343       C  0.13058777  0.23807068  0.93976025     0.02800
C3344       C  0.14184296  0.25349473  0.92830437    -0.11400
C3345       C  0.13302231  0.27150164  0.93201231    -0.01500
C3346       C  0.11279700  0.27417565  0.94561403    -0.06600
H3347       H  0.10178858  0.22899550  0.96237444     0.05800
H3348       H  0.14121976  0.28347821  0.92300833     0.09200
Br3349     Br  0.05866417  0.25434936  0.91784868    -0.06300
Br3350     Br  0.06133503  0.27000352  0.05094417    -0.03300
Br3351     Br  0.14183486  0.21302348  0.93736034    -0.00400
Br3352     Br  0.10061583  0.29888463  0.94756950    -0.04800
C3353       C  0.38329420  0.24853239  0.66644395    -0.12200
C3354       C  0.38341421  0.24171609  0.69331243     0.03300
C3355       C  0.36317560  0.23972652  0.70728218    -0.12700
C3356       C  0.34282751  0.24445918  0.69484349     0.18100
C3357       C  0.34263189  0.25041023  0.66763401    -0.09800
C3358       C  0.36276931  0.25234930  0.65365508    -0.02700
H3359       H  0.36339826  0.23546540  0.72840486     0.04700
C3360       C  0.32254522  0.24588628  0.71161538     0.20100
H3361       H  0.36241830  0.25726713  0.63283355     0.09800
C3362       C  0.31395372  0.26368631  0.71686599    -0.16100
C3363       C  0.29508392  0.26606969  0.73312244     0.02800
C3364       C  0.28452413  0.25034449  0.74469363    -0.11400
C3365       C  0.29311601  0.23246034  0.73919445    -0.01500
C3366       C  0.31212281  0.23015757  0.72296983    -0.06600
H3367       H  0.32207516  0.27584219  0.70824963     0.05800
H3368       H  0.28542471  0.22024671  0.74817766     0.09200
Br3369     Br  0.31535515  0.25671437  0.64906869    -0.06300
Br3370     Br  0.41056376  0.23704582  0.71305558    -0.03300
Br3371     Br  0.28437851  0.29112457  0.73757754    -0.00400
Br3372     Br  0.32325756  0.20540154  0.71697538    -0.04800
C3373       C  0.17739431  0.58591536  0.99456071    -0.12200
C3374       C  0.17126552  0.59192048  0.02090975     0.03300
C3375       C  0.16336463  0.61023761  0.02489258    -0.12700
C3376       C  0.16166897  0.62272861  0.00296685     0.18100
C3377       C  0.16837866  0.61682408  0.97694544    -0.09800
C3378       C  0.17615831  0.59869057  0.97297669    -0.02700
H3379       H  0.15808674  0.61461829  0.04497708     0.04700
C3380       C  0.15194354  0.64162302  0.00658281     0.20100
H3381       H  0.18084068  0.59440967  0.95261396     0.09800
C3382       C  0.16618623  0.65718772  0.00603516    -0.16100
C3383       C  0.15751252  0.67520221  0.00274063     0.02800
C3384       C  0.13413627  0.67794242  0.00048663    -0.11400
C3385       C  0.11983516  0.66250438  0.00316996    -0.01500
C3386       C  0.12857652  0.64442127  0.00571210    -0.06600
H3387       H  0.18418358  0.65519800  0.00639455     0.05800
H3388       H  0.10190589  0.66430813  0.00090571     0.09200
Br3389     Br  0.16582124  0.63269585  0.94569857    -0.06300
Br3390     Br  0.17179153  0.57540595  0.05157233    -0.03300
Br3391     Br  0.17837244  0.69552419  0.00001971    -0.00400
Br3392     Br  0.10818223  0.62376965  0.00419253    -0.04800
C3393       C  0.03520132  0.50705145  0.78869724    -0.12200
C3394       C  0.03569781  0.50118628  0.81603119     0.03300
C3395       C  0.05599785  0.50150397  0.83015574    -0.12700
C3396       C  0.07572607  0.50749989  0.81734661     0.18100
C3397       C  0.07531841  0.51291931  0.78999884    -0.09800
C3398       C  0.05517788  0.51265372  0.77593664    -0.02700
H3399       H  0.05639071  0.49732965  0.85131238     0.04700
C3400       C  0.09650151  0.50857892  0.83302521     0.20100
H3401       H  0.05519707  0.51684592  0.75478016     0.09800
C3402       C  0.11377980  0.49595159  0.82756504    -0.16100
C3403       C  0.13366172  0.49640386  0.84250797     0.02800
C3404       C  0.13623646  0.50968052  0.86368795    -0.11400
C3405       C  0.11892166  0.52269346  0.86822647    -0.01500
C3406       C  0.09927130  0.52224420  0.85311173    -0.06600
H3407       H  0.11168843  0.48562337  0.81165037     0.05800
H3408       H  0.12025110  0.53307950  0.88415228     0.09200
Br3409     Br  0.10158662  0.52145404  0.77121058    -0.06300
Br3410     Br  0.00933017  0.49365004  0.83554760    -0.03300
Br3411     Br  0.15608183  0.47850994  0.83228299    -0.00400
Br3412     Br  0.07680667  0.54075049  0.86045338    -0.04800
C3413       C  0.23278645  0.42530267  0.91805712    -0.12200
C3414       C  0.22350239  0.41013859  0.93225278     0.03300
C3415       C  0.22679294  0.39201604  0.92268253    -0.12700
C3416       C  0.23958574  0.38864487  0.89925603     0.18100
C3417       C  0.24931686  0.40380521  0.88536796    -0.09800
C3418       C  0.24568348  0.42201594  0.89470005    -0.02700
H3419       H  0.21887982  0.38050284  0.93321991     0.04700
C3420       C  0.24114432  0.36933852  0.88884804     0.20100
H3421       H  0.25292569  0.43363958  0.88372647     0.09800
C3422       C  0.23170644  0.36504621  0.86341633    -0.16100
C3423       C  0.23076675  0.34662263  0.85418038     0.02800
C3424       C  0.23908610  0.33221820  0.87071105    -0.11400
C3425       C  0.24864922  0.33644701  0.89594445    -0.01500
C3426       C  0.24997198  0.35485695  0.90497506    -0.06600
H3427       H  0.22437314  0.37599030  0.85113817     0.05800
H3428       H  0.25489818  0.32533801  0.90879244     0.09200
Br3429     Br  0.26804073  0.40028160  0.85405273    -0.06300
Br3430     Br  0.20480736  0.41355913  0.96360887    -0.03300
Br3431     Br  0.21610838  0.34158204  0.82017038    -0.00400
Br3432     Br  0.26412072  0.35939436  0.93937510    -0.04800
C3433       C  0.13464891  0.17563552  0.48822094    -0.12200
C3434       C  0.13580293  0.16712858  0.51409606     0.03300
C3435       C  0.14420893  0.14888567  0.51647621    -0.12700
C3436       C  0.15166107  0.13906001  0.49348253     0.18100
C3437       C  0.15023415  0.14741216  0.46777376    -0.09800
C3438       C  0.14175864  0.16539100  0.46533305    -0.02700
H3439       H  0.14513319  0.14240062  0.53631779     0.04700
C3440       C  0.15990790  0.11975156  0.49593329     0.20100
H3441       H  0.14072690  0.17138572  0.44516860     0.09800
C3442       C  0.14436957  0.10517056  0.49447601    -0.16100
C3443       C  0.15148228  0.08673678  0.49119307     0.02800
C3444       C  0.17464115  0.08262482  0.48986402    -0.11400
C3445       C  0.19017376  0.09716392  0.49337051    -0.01500
C3446       C  0.18297880  0.11567033  0.49579916    -0.06600
H3447       H  0.12659379  0.10826563  0.49439974     0.05800
H3448       H  0.20797622  0.09432098  0.49208683     0.09200
Br3449     Br  0.15951111  0.13475105  0.43521871    -0.06300
Br3450     Br  0.12747779  0.17987423  0.54688056    -0.03300
Br3451     Br  0.12866419  0.06798242  0.48799874    -0.00400
Br3452     Br  0.20513909  0.13505549  0.49600119    -0.04800
C3453       C  0.05645972  0.25810406  0.33433650    -0.12200
C3454       C  0.06893371  0.25836890  0.30994833     0.03300
C3455       C  0.05774890  0.25828980  0.28474805    -0.12700
C3456       C  0.03420236  0.25772933  0.28337812     0.18100
C3457       C  0.02184423  0.25725930  0.30770075    -0.09800
C3458       C  0.03294007  0.25746233  0.33275344    -0.02700
H3459       H  0.06744660  0.25842587  0.26613135     0.04700
C3460       C  0.02274289  0.25794221  0.25652509     0.20100
H3461       H  0.02306964  0.25705792  0.35123529     0.09800
C3462       C  0.01346625  0.24147251  0.24589435    -0.16100
C3463       C  0.00263841  0.24130295  0.22049786     0.02800
C3464       C  0.00134157  0.25787842  0.20489076    -0.11400
C3465       C  0.01023700  0.27440080  0.21612139    -0.01500
C3466       C  0.02059023  0.27455563  0.24165691    -0.06600
H3467       H  0.01472358  0.22865321  0.25741899     0.05800
H3468       H  0.00904499  0.28740700  0.20504248     0.09200
Br3469     Br  0.98971951  0.25651986  0.30775548    -0.06300
Br3470     Br  0.10105861  0.25731920  0.30988115    -0.03300
Br3471     Br  0.99080292  0.21782160  0.20832534    -0.00400
Br3472     Br  0.03091720  0.29794434  0.25590583    -0.04800
C3473       C  0.02267614  0.24875361  0.54034153    -0.12200
C3474       C  0.00239649  0.24209281  0.52948546     0.03300
C3475       C  0.98292129  0.24282561  0.54508552    -0.12700
C3476       C  0.98349394  0.25009744  0.57148186     0.18100
C3477       C  0.00404444  0.25567867  0.58299093    -0.09800
C3478       C  0.02355770  0.25506131  0.56728117    -0.02700
H3479       H  0.96718714  0.23819598  0.53638069     0.04700
C3480       C  0.96231888  0.25234736  0.58628161     0.20100
H3481       H  0.03921408  0.26008248  0.57573493     0.09800
C3482       C  0.95339856  0.23709800  0.60023610    -0.16100
C3483       C  0.93358031  0.23888934  0.61506686     0.02800
C3484       C  0.92225354  0.25618602  0.61570695    -0.11400
C3485       C  0.93110846  0.27137543  0.60129070    -0.01500
C3486       C  0.95095192  0.26952133  0.58647527    -0.06600
H3487       H  0.96219963  0.22388283  0.60010857     0.05800
H3488       H  0.92259869  0.28471987  0.60162444     0.09200
Br3489     Br  0.00596532  0.26460233  0.61970288    -0.06300
Br3490     Br  0.00055219  0.23229424  0.49322301    -0.03300
Br3491     Br  0.92422058  0.21774440  0.63609145    -0.00400
Br3492     Br  0.96196962  0.29070153  0.56676307    -0.04800
C3493       C  0.17390112  0.25864322  0.36819627    -0.12200
C3494       C  0.18865100  0.27380816  0.37155464     0.03300
C3495       C  0.20866875  0.27433270  0.35687814    -0.12700
C3496       C  0.21423895  0.25992976  0.33876959     0.18100
C3497       C  0.19926941  0.24489798  0.33514749    -0.09800
C3498       C  0.17932641  0.24433075  0.34994629    -0.02700
H3499       H  0.22026951  0.28573910  0.36021020     0.04700
C3500       C  0.23615870  0.26035762  0.32486164     0.20100
H3501       H  0.16813698  0.23253583  0.34750646     0.09800
C3502       C  0.25150472  0.24586673  0.32951296    -0.16100
C3503       C  0.27166581  0.24501443  0.31515805     0.02800
C3504       C  0.27701204  0.25915593  0.29650729    -0.11400
C3505       C  0.26240019  0.27431207  0.29320431    -0.01500
C3506       C  0.24190709  0.27487962  0.30691077    -0.06600
H3507       H  0.24748899  0.23491059  0.34385293     0.05800
H3508       H  0.26634085  0.28518262  0.27868195     0.09200
Br3509     Br  0.20520160  0.22479208  0.31033335    -0.06300
Br3510     Br  0.18340414  0.29308070  0.39794700    -0.03300
Br3511     Br  0.29140477  0.22440485  0.32174609    -0.00400
Br3512     Br  0.22156342  0.29480522  0.29849928    -0.04800
C3513       C  0.17262669  0.24903223  0.71526749    -0.12200
C3514       C  0.18583293  0.24238305  0.69337024     0.03300
C3515       C  0.17708135  0.24216188  0.66696264    -0.12700
C3516       C  0.15555370  0.24900224  0.66129377     0.18100
C3517       C  0.14217178  0.25532686  0.68311903    -0.09800
C3518       C  0.15078132  0.25537925  0.70964928    -0.02700
H3519       H  0.18742421  0.23696486  0.65051505     0.04700
C3520       C  0.14773326  0.24966827  0.63249533     0.20100
H3521       H  0.14024911  0.26044302  0.72600849     0.09800
C3522       C  0.12799475  0.24034676  0.62491085    -0.16100
C3523       C  0.12005792  0.24083855  0.59808369     0.02800
C3524       C  0.13247769  0.25029105  0.57772552    -0.11400
C3525       C  0.15239112  0.25939119  0.58538185    -0.01500
C3526       C  0.15995365  0.25927050  0.61230132    -0.06600
H3527       H  0.11852709  0.23274333  0.64006659     0.05800
H3528       H  0.16221957  0.26677799  0.57033361     0.09200
Br3529     Br  0.11225266  0.26455867  0.67801671    -0.06300
Br3530     Br  0.21656138  0.23474086  0.69721160    -0.03300
Br3531     Br  0.09147420  0.22924039  0.59155339    -0.00400
Br3532     Br  0.18666137  0.27321753  0.62025789    -0.04800
C3533       C  0.13179203  0.58345259  0.28787883    -0.12200
C3534       C  0.11774297  0.59916102  0.28516210     0.03300
C3535       C  0.12706835  0.61666025  0.27946680    -0.12700
C3536       C  0.15027721  0.61878821  0.27602131     0.18100
C3537       C  0.16404666  0.60280890  0.27657323    -0.09800
C3538       C  0.15480294  0.58538308  0.28272237    -0.02700
H3539       H  0.11634222  0.62884591  0.27962625     0.04700
C3540       C  0.16016803  0.63773211  0.27796572     0.20100
H3541       H  0.16574731  0.57338319  0.28437235     0.09800
C3542       C  0.17320443  0.64171562  0.30094408    -0.16100
C3543       C  0.18129476  0.65961340  0.30576303     0.02800
C3544       C  0.17657818  0.67408919  0.28733363    -0.11400
C3545       C  0.16394657  0.67020782  0.26391956    -0.01500
C3546       C  0.15548169  0.65216477  0.25928849    -0.06600
H3547       H  0.17655396  0.63089576  0.31575534     0.05800
H3548       H  0.15990842  0.68133335  0.24987723     0.09200
Br3549     Br  0.19577916  0.60431339  0.27048916    -0.06300
Br3550     Br  0.08618695  0.59803839  0.29240170    -0.03300
Br3551     Br  0.19841788  0.66359798  0.33832786    -0.00400
Br3552     Br  0.13733555  0.64801562  0.22769039    -0.04800
C3553       C  0.04990152  0.50825117  0.45730604    -0.12200
C3554       C  0.05857528  0.49874050  0.48022624     0.03300
C3555       C  0.04613739  0.49817721  0.50432368    -0.12700
C3556       C  0.02510468  0.50678733  0.50618109     0.18100
C3557       C  0.01643557  0.51626579  0.48358788    -0.09800
C3558       C  0.02873252  0.51688536  0.45953423    -0.02700
H3559       H  0.05299284  0.49108395  0.52189369     0.04700
C3560       C  0.01285013  0.50612367  0.53217704     0.20100
H3561       H  0.02141977  0.52407876  0.44234381     0.09800
C3562       C  0.01025747  0.52256998  0.54729812    -0.16100
C3563       C  0.00035273  0.52222791  0.57303308     0.02800
C3564       C  0.99292321  0.50515242  0.58400135    -0.11400
C3565       C  0.99529730  0.48872832  0.56866103    -0.01500
C3566       C  0.00502116  0.48913264  0.54282488    -0.06600
H3567       H  0.01657471  0.53564038  0.53935143     0.05800
H3568       H  0.98964829  0.47552409  0.57687433     0.09200
Br3569     Br  0.98761028  0.52814130  0.48423037    -0.06300
Br3570     Br  0.08741250  0.48687683  0.48102210    -0.03300
Br3571     Br  0.99938541  0.54516111  0.59321072    -0.00400
Br3572     Br  0.00714231  0.46624416  0.52265570    -0.04800
C3573       C  0.01810562  0.50915209  0.25349822    -0.12200
C3574       C  0.99662388  0.51356218  0.26341021     0.03300
C3575       C  0.97841926  0.51354703  0.24568715    -0.12700
C3576       C  0.98132017  0.50877589  0.21832545     0.18100
C3577       C  0.00279090  0.50446390  0.20834201    -0.09800
C3578       C  0.02111769  0.50486393  0.22595665    -0.02700
H3579       H  0.96185098  0.51679057  0.25337874     0.04700
C3580       C  0.96141366  0.50725687  0.20109701     0.20100
H3581       H  0.03761170  0.50127709  0.21836550     0.09800
C3582       C  0.95187262  0.52343574  0.19027606    -0.16100
C3583       C  0.93239093  0.52243244  0.17464208     0.02800
C3584       C  0.92194742  0.50497449  0.17035142    -0.11400
C3585       C  0.93166689  0.48881982  0.18131494    -0.01500
C3586       C  0.95134205  0.48985196  0.19645540    -0.06600
H3587       H  0.95981430  0.53683070  0.19369441     0.05800
H3588       H  0.92397091  0.47531158  0.17802586     0.09200
Br3589     Br  0.00764441  0.49741269  0.17117397    -0.06300
Br3590     Br  0.99135207  0.51975365  0.30086321    -0.03300
Br3591     Br  0.92222238  0.54511041  0.15797048    -0.00400
Br3592     Br  0.96396603  0.46718155  0.21037467    -0.04800
C3593       C  0.17127074  0.51178664  0.08053607    -0.12200
C3594       C  0.18719625  0.51303803  0.10181316     0.03300
C3595       C  0.18003725  0.51344100  0.12893869    -0.12700
C3596       C  0.15718841  0.51277877  0.13544138     0.18100
C3597       C  0.14128324  0.51207378  0.11433517    -0.09800
C3598       C  0.14837067  0.51130612  0.08720074    -0.02700
H3599       H  0.19236897  0.51400750  0.14509312     0.04700
C3600       C  0.15020260  0.51234379  0.16432890     0.20100
H3601       H  0.13591209  0.51050074  0.07121669     0.09800
C3602       C  0.14146071  0.52847591  0.17638447    -0.16100
C3603       C  0.13405885  0.52838848  0.20341145     0.02800
C3604       C  0.13466357  0.51165532  0.21872545    -0.11400
C3605       C  0.14420034  0.49568525  0.20672763    -0.01500
C3606       C  0.15200718  0.49596387  0.17988159    -0.06600
H3607       H  0.14056724  0.54126089  0.16472335     0.05800
H3608       H  0.14515522  0.48275916  0.21803431     0.09200
Br3609     Br  0.10971780  0.51197345  0.12174931    -0.06300
Br3610     Br  0.21897888  0.51285989  0.09544791    -0.03300
Br3611     Br  0.12503591  0.55197341  0.21844916    -0.00400
Br3612     Br  0.16427350  0.47345254  0.16491787    -0.04800
C3613       C  0.06679137  0.43107370  0.38265073    -0.12200
C3614       C  0.06537918  0.42665478  0.41058817     0.03300
C3615       C  0.06504039  0.40796378  0.41892667    -0.12700
C3616       C  0.06565640  0.39347359  0.39976901     0.18100
C3617       C  0.06541144  0.39786847  0.37187943    -0.09800
C3618       C  0.06607997  0.41652841  0.36350323    -0.02700
H3619       H  0.06470246  0.40472280  0.44042574     0.04700
C3620       C  0.06808479  0.37390386  0.40898867     0.20100
H3621       H  0.06685678  0.41963832  0.34197696     0.09800
C3622       C  0.04922270  0.36368530  0.41724617    -0.16100
C3623       C  0.05109277  0.34479086  0.42446412     0.02800
C3624       C  0.07217648  0.33579933  0.42323222    -0.11400
C3625       C  0.09102879  0.34628324  0.41541873    -0.01500
C3626       C  0.08915269  0.36512331  0.40854819    -0.06600
H3627       H  0.03292894  0.37033858  0.41756250     0.05800
H3628       H  0.10741611  0.33979573  0.41471402     0.09200
Br3629     Br  0.06462897  0.37870696  0.34463774    -0.06300
Br3630     Br  0.06289615  0.44561205  0.43805797    -0.03300
Br3631     Br  0.02409417  0.33186778  0.43418493    -0.00400
Br3632     Br  0.11586165  0.37834034  0.39848679    -0.04800
C3633       C  0.42255976  0.83872916  0.04050548    -0.12200
C3634       C  0.42111563  0.84497753  0.01326463     0.03300
C3635       C  0.41221695  0.86269570  0.00764873    -0.12700
C3636       C  0.40451308  0.87422659  0.02871181     0.18100
C3637       C  0.40554535  0.86791056  0.05568256    -0.09800
C3638       C  0.41457399  0.85046640  0.06135645    -0.02700
H3639       H  0.41136698  0.86752877  0.98682369     0.04700
C3640       C  0.39668259  0.89333473  0.02309126     0.20100
H3641       H  0.41543162  0.84615188  0.08243014     0.09800
C3642       C  0.37360082  0.89696003  0.02196755    -0.16100
C3643       C  0.36547322  0.91522672  0.02452206     0.02800
C3644       C  0.38068911  0.93014024  0.02796717    -0.11400
C3645       C  0.40380170  0.92650942  0.02661885    -0.01500
C3646       C  0.41184066  0.90830231  0.02435380    -0.06600
H3647       H  0.36186067  0.88543403  0.02134937     0.05800
H3648       H  0.41570296  0.93780117  0.02915386     0.09200
Br3649     Br  0.39510781  0.88277218  0.08566106    -0.06300
Br3650     Br  0.42995487  0.82991634  0.98279548    -0.03300
Br3651     Br  0.33366553  0.91845344  0.02745954    -0.00400
Br3652     Br  0.44360062  0.90431797  0.02633533    -0.04800
C3653       C  0.50379283  0.76190505  0.20041708    -0.12200
C3654       C  0.49730552  0.75067445  0.22278962     0.03300
C3655       C  0.50920348  0.75180299  0.24734861    -0.12700
C3656       C  0.52733814  0.76406339  0.25045828     0.18100
C3657       C  0.53359868  0.77550148  0.22867342    -0.09800
C3658       C  0.52195690  0.77436828  0.20413176    -0.02700
H3659       H  0.50435147  0.74295542  0.26419076     0.04700
C3660       C  0.54032263  0.76381972  0.27602575     0.20100
H3661       H  0.52755780  0.78327823  0.18773245     0.09800
C3662       C  0.55405524  0.74841020  0.28143646    -0.16100
C3663       C  0.56532224  0.74685148  0.30624063     0.02800
C3664       C  0.56342754  0.76114465  0.32577674    -0.11400
C3665       C  0.55041009  0.77692314  0.31993354    -0.01500
C3666       C  0.53849713  0.77817037  0.29549376    -0.06600
H3667       H  0.55549943  0.73730416  0.26657582     0.05800
H3668       H  0.54834139  0.78772970  0.33515555     0.09200
Br3669     Br  0.55853296  0.79237790  0.23103578    -0.06300
Br3670     Br  0.47259368  0.73355333  0.22201444    -0.03300
Br3671     Br  0.58270298  0.72479764  0.31271075    -0.00400
Br3672     Br  0.51829361  0.79871347  0.29081421    -0.04800
C3673       C  0.63076781  0.75506714  0.91574896    -0.12200
C3674       C  0.61537989  0.76937356  0.90989620     0.03300
C3675       C  0.59516944  0.77025622  0.92403910    -0.12700
C3676       C  0.59038881  0.75742798  0.94470395     0.18100
C3677       C  0.60631781  0.74366373  0.95144371    -0.09800
C3678       C  0.62618186  0.74232902  0.93654224    -0.02700
H3679       H  0.58299724  0.78083474  0.91865999     0.04700
C3680       C  0.56840361  0.75817545  0.95829470     0.20100
H3681       H  0.63810456  0.73140620  0.94123795     0.09800
C3682       C  0.55414750  0.74263257  0.95667844    -0.16100
C3683       C  0.53391740  0.74227462  0.97090278     0.02800
C3684       C  0.52731254  0.75798051  0.98607879    -0.11400
C3685       C  0.54096152  0.77391265  0.98640314    -0.01500
C3686       C  0.56155240  0.77403233  0.97300589    -0.06600
H3687       H  0.55913403  0.73051035  0.94497687     0.05800
H3688       H  0.53631209  0.78586748  0.99866079     0.09200
Br3689     Br  0.60206474  0.72689428  0.98140103    -0.06300
Br3690     Br  0.62063592  0.78737245  0.88174960    -0.03300
Br3691     Br  0.51612995  0.71999862  0.96931659    -0.00400
Br3692     Br  0.58053683  0.79543292  0.97771960    -0.04800
C3693       C  0.38204703  0.75856735  0.16288260    -0.12200
C3694       C  0.38116797  0.75375722  0.19054063     0.03300
C3695       C  0.36036215  0.75211392  0.20335820    -0.12700
C3696       C  0.34038645  0.75518506  0.18892605     0.18100
C3697       C  0.34130123  0.76004853  0.16128679    -0.09800
C3698       C  0.36203969  0.76168340  0.14851899    -0.02700
H3699       H  0.35973754  0.74880918  0.22483112     0.04700
C3700       C  0.31898774  0.75441957  0.20373195     0.20100
H3701       H  0.36255022  0.76534658  0.12715350     0.09800
C3702       C  0.30723645  0.77102993  0.20841903    -0.16100
C3703       C  0.28857861  0.77129606  0.22552568     0.02800
C3704       C  0.28168119  0.75474360  0.23852617    -0.11400
C3705       C  0.29270023  0.73794339  0.23253250    -0.01500
C3706       C  0.31120845  0.73767673  0.21520625    -0.06600
H3707       H  0.31295077  0.78391793  0.19926239     0.05800
H3708       H  0.28734630  0.72506393  0.24202485     0.09200
Br3709     Br  0.31483513  0.76435217  0.14002196    -0.06300
Br3710     Br  0.40773933  0.75074555  0.21203864    -0.03300
Br3711     Br  0.27284790  0.79446974  0.22965006    -0.00400
Br3712     Br  0.32530602  0.71417799  0.20776216    -0.04800
C3713       C  0.42967609  0.42722096  0.24448326    -0.12200
C3714       C  0.43001673  0.41927814  0.27084548     0.03300
C3715       C  0.42328641  0.40059555  0.27470084    -0.12700
C3716       C  0.41619358  0.38954190  0.25269905     0.18100
C3717       C  0.41577808  0.39744093  0.22655804    -0.09800
C3718       C  0.42253821  0.41590209  0.22265769    -0.02700
H3719       H  0.42342689  0.39471279  0.29496597     0.04700
C3720       C  0.40887241  0.36988069  0.25671714     0.20100
H3721       H  0.42203167  0.42146301  0.20220125     0.09800
C3722       C  0.38684531  0.36610871  0.26501072    -0.16100
C3723       C  0.37783346  0.34802061  0.26310786     0.02800
C3724       C  0.39076827  0.33335664  0.25182891    -0.11400
C3725       C  0.41348584  0.33698631  0.24592410    -0.01500
C3726       C  0.42257079  0.35492996  0.24858970    -0.06600
H3727       H  0.37624171  0.37747598  0.27173063     0.05800
H3728       H  0.42408683  0.32593115  0.23815924     0.09200
Br3729     Br  0.40531636  0.38370068  0.19547973    -0.06300
Br3730     Br  0.43805584  0.43336612  0.30255231    -0.03300
Br3731     Br  0.34738131  0.34497866  0.27441390    -0.00400
Br3732     Br  0.45351427  0.35869783  0.23957666    -0.04800
C3733       C  0.55058060  0.50575503  0.95739028    -0.12200
C3734       C  0.56175463  0.49994567  0.98133329     0.03300
C3735       C  0.55054161  0.50051860  0.00642795    -0.12700
C3736       C  0.52807186  0.50619222  0.00816632     0.18100
C3737       C  0.51657113  0.51095995  0.98427368    -0.09800
C3738       C  0.52782950  0.51092640  0.95935352    -0.02700
H3739       H  0.55941659  0.49655908  0.02474851     0.04700
C3740       C  0.51686051  0.50716113  0.03502215     0.20100
H3741       H  0.51858629  0.51488647  0.94130683     0.09800
C3742       C  0.51220839  0.52463277  0.04670513    -0.16100
C3743       C  0.50194970  0.52604110  0.07231541     0.02800
C3744       C  0.49604154  0.50970033  0.08660054    -0.11400
C3745       C  0.50057488  0.49225904  0.07459414    -0.01500
C3746       C  0.51083643  0.49089635  0.04913369    -0.06600
H3747       H  0.51697556  0.53723029  0.03603478     0.05800
H3748       H  0.49622263  0.47952746  0.08520139     0.09200
Br3749     Br  0.48524910  0.51704053  0.98463961    -0.06300
Br3750     Br  0.59226654  0.49146412  0.98164475    -0.03300
Br3751     Br  0.49827620  0.55049554  0.08756594    -0.00400
Br3752     Br  0.51595665  0.46651527  0.03424868    -0.04800
C3753       C  0.37944746  0.50866277  0.12549806    -0.12200
C3754       C  0.37974926  0.51246923  0.09741360     0.03300
C3755       C  0.35973985  0.51173394  0.08259375    -0.12700
C3756       C  0.33932508  0.50762692  0.09549091     0.18100
C3757       C  0.33901396  0.50416324  0.12360418    -0.09800
C3758       C  0.35897931  0.50457787  0.13827694    -0.02700
H3759       H  0.36009521  0.51423574  0.06088004     0.04700
C3760       C  0.31857450  0.50676311  0.07927237     0.20100
H3761       H  0.35850525  0.50176278  0.15991290     0.09800
C3762       C  0.30736055  0.48967601  0.07648426    -0.16100
C3763       C  0.28788630  0.48829137  0.06085049     0.02800
C3764       C  0.27961725  0.50417111  0.04723581    -0.11400
C3765       C  0.29051707  0.52137119  0.05077194    -0.01500
C3766       C  0.30986487  0.52275102  0.06658682    -0.06600
H3767       H  0.31378963  0.47737131  0.08658536     0.05800
H3768       H  0.28430202  0.53373299  0.04062715     0.09200
Br3769     Br  0.31172613  0.49935353  0.14306488    -0.06300
Br3770     Br  0.40699204  0.51758390  0.07807502    -0.03300
Br3771     Br  0.27272071  0.46468481  0.06029422    -0.00400
Br3772     Br  0.32365538  0.54678729  0.07050894    -0.04800
C3773       C  0.53250001  0.51047434  0.29562286    -0.12200
C3774       C  0.54960431  0.49772359  0.28911899     0.03300
C3775       C  0.56955574  0.49788928  0.30376062    -0.12700
C3776       C  0.57260255  0.51025047  0.32549816     0.18100
C3777       C  0.55517875  0.52259913  0.33272657    -0.09800
C3778       C  0.53536153  0.52284165  0.31745799    -0.02700
H3779       H  0.58295519  0.48853140  0.29784064     0.04700
C3780       C  0.59458824  0.51066658  0.33915894     0.20100
H3781       H  0.52220703  0.53263872  0.32260555     0.09800
C3782       C  0.60739201  0.52705839  0.33820051    -0.16100
C3783       C  0.62829716  0.52801034  0.35086744     0.02800
C3784       C  0.63696989  0.51212996  0.36406915    -0.11400
C3785       C  0.62462717  0.49546474  0.36376681    -0.01500
C3786       C  0.60343633  0.49470616  0.35186888    -0.06600
H3787       H  0.60095047  0.53923968  0.32780049     0.05800
H3788       H  0.63083557  0.48328579  0.37439017     0.09200
Br3789     Br  0.55754720  0.53897298  0.36353384    -0.06300
Br3790     Br  0.54715745  0.48052495  0.25932312    -0.03300
Br3791     Br  0.64423389  0.55124528  0.34919695    -0.00400
Br3792     Br  0.58651140  0.47207912  0.35573124    -0.04800
C3793       C  0.48397558  0.58883881  0.16842146    -0.12200
C3794       C  0.46599822  0.60159310  0.16723068     0.03300
C3795       C  0.46953882  0.61972339  0.15778338    -0.12700
C3796       C  0.49080528  0.62554706  0.14929614     0.18100
C3797       C  0.50892767  0.61302031  0.15083462    -0.09800
C3798       C  0.50547243  0.59482186  0.16058832    -0.02700
H3799       H  0.45557241  0.62936283  0.15696822     0.04700
C3800       C  0.49332073  0.64482912  0.13902668     0.20100
H3801       H  0.51944007  0.58519405  0.16137123     0.09800
C3802       C  0.49642172  0.65942288  0.15762878    -0.16100
C3803       C  0.49529541  0.67805432  0.14921492     0.02800
C3804       C  0.49066703  0.68234028  0.12175711    -0.11400
C3805       C  0.48887650  0.66765665  0.10289788    -0.01500
C3806       C  0.49006049  0.64902415  0.11137144    -0.06600
H3807       H  0.49914320  0.65629703  0.17891749     0.05800
H3808       H  0.48537713  0.67064791  0.08173446     0.09200
Br3809     Br  0.53835397  0.62015647  0.13915845    -0.06300
Br3810     Br  0.43642048  0.59532964  0.17949373    -0.03300
Br3811     Br  0.50079389  0.69702517  0.17594427    -0.00400
Br3812     Br  0.48576537  0.62967845  0.08490050    -0.04800
C3813       C  0.37764384  0.83631977  0.74151470    -0.12200
C3814       C  0.36309459  0.85170742  0.74458549     0.03300
C3815       C  0.37194902  0.86983245  0.74652138    -0.12700
C3816       C  0.39517220  0.87292564  0.74517132     0.18100
C3817       C  0.40967759  0.85753878  0.74337488    -0.09800
C3818       C  0.40091434  0.83948511  0.74163141    -0.02700
H3819       H  0.36063757  0.88163088  0.74737756     0.04700
C3820       C  0.40390096  0.89210218  0.74127878     0.20100
H3821       H  0.41235950  0.82788779  0.73904192     0.09800
C3822       C  0.41011786  0.90315105  0.76364834    -0.16100
C3823       C  0.41930750  0.92106431  0.75992208     0.02800
C3824       C  0.42219353  0.92820682  0.73332061    -0.11400
C3825       C  0.41603002  0.91686497  0.71113287    -0.01500
C3826       C  0.40709603  0.89907930  0.71488987    -0.06600
H3827       H  0.40789726  0.89778809  0.78404453     0.05800
H3828       H  0.41833964  0.92177668  0.69050213     0.09200
Br3829     Br  0.44154130  0.86073225  0.74090838    -0.06300
Br3830     Br  0.33115164  0.84912370  0.74236844    -0.03300
Br3831     Br  0.42659866  0.93519705  0.79188924    -0.00400
Br3832     Br  0.39990423  0.88462874  0.68315922    -0.04800
C3833       C  0.24861367  0.74903343  0.45179681    -0.12200
C3834       C  0.24910704  0.73259572  0.46755499     0.03300
C3835       C  0.26022736  0.73245124  0.49265210    -0.12700
C3836       C  0.27109270  0.74848074  0.50237415     0.18100
C3837       C  0.27046554  0.76492191  0.48674333    -0.09800
C3838       C  0.25918201  0.76513398  0.46175946    -0.02700
H3839       H  0.26032725  0.71981695  0.50470034     0.04700
C3840       C  0.28209243  0.74813149  0.52940595     0.20100
H3841       H  0.25922291  0.77776672  0.44970847     0.09800
C3842       C  0.30556381  0.74725656  0.53131720    -0.16100
C3843       C  0.31635271  0.74819355  0.55668340     0.02800
C3844       C  0.30351642  0.75022971  0.58065007    -0.11400
C3845       C  0.28002739  0.75060661  0.57856900    -0.01500
C3846       C  0.26933008  0.74946501  0.55334739    -0.06600
H3847       H  0.31552140  0.74623253  0.51296095     0.05800
H3848       H  0.26987869  0.75197649  0.59673149     0.09200
Br3849     Br  0.28471539  0.78742763  0.49883176    -0.06300
Br3850     Br  0.23404621  0.71022585  0.45620099    -0.03300
Br3851     Br  0.34851948  0.74803092  0.55707917    -0.00400
Br3852     Br  0.23722186  0.75059750  0.55251977    -0.04800
C3853       C  0.41881431  0.75666945  0.61433429    -0.12200
C3854       C  0.42695785  0.77215818  0.59967878     0.03300
C3855       C  0.44502041  0.76990730  0.58193998    -0.12700
C3856       C  0.45522619  0.75246194  0.57863770     0.18100
C3857       C  0.44722375  0.73703202  0.59328226    -0.09800
C3858       C  0.42900834  0.73918034  0.61079106    -0.02700
H3859       H  0.45124153  0.78183723  0.57074094     0.04700
C3860       C  0.47487407  0.75091434  0.56075005     0.20100
H3861       H  0.42301613  0.72718890  0.62203414     0.09800
C3862       C  0.49611864  0.74932241  0.57257047    -0.16100
C3863       C  0.51536744  0.74926855  0.55648193     0.02800
C3864       C  0.51348975  0.75078145  0.52803421    -0.11400
C3865       C  0.49211465  0.75216968  0.51616849    -0.01500
C3866       C  0.47283174  0.75217238  0.53233649    -0.06600
H3867       H  0.49773738  0.74868573  0.59449214     0.05800
H3868       H  0.49044253  0.75338461  0.49430525     0.09200
Br3869     Br  0.46058755  0.71281641  0.58986399    -0.06300
Br3870     Br  0.41358439  0.79645792  0.60191426    -0.03300
Br3871     Br  0.54374215  0.74909073  0.57466717    -0.00400
Br3872     Br  0.44406410  0.75388215  0.51502267    -0.04800
C3873       C  0.26798596  0.75705171  0.78760840    -0.12200
C3874       C  0.24774132  0.76442736  0.77777721     0.03300
C3875       C  0.22836004  0.76265524  0.79319598    -0.12700
C3876       C  0.22897129  0.75351947  0.81827265     0.18100
C3877       C  0.24922693  0.74618666  0.82822147    -0.09800
C3878       C  0.26870011  0.74799001  0.81276036    -0.02700
H3879       H  0.21269793  0.76818658  0.78549645     0.04700
C3880       C  0.20815841  0.75175526  0.83359367     0.20100
H3881       H  0.28423583  0.74195836  0.82000337     0.09800
C3882       C  0.19744789  0.73438207  0.83483750    -0.16100
C3883       C  0.17746969  0.73235575  0.84921930     0.02800
C3884       C  0.16796971  0.74801266  0.86204567    -0.11400
C3885       C  0.17856141  0.76544314  0.86026505    -0.01500
C3886       C  0.19861111  0.76738927  0.84625269    -0.06600
H3887       H  0.20471864  0.72240810  0.82468308     0.05800
H3888       H  0.17162215  0.77748267  0.87061944     0.09200
Br3889     Br  0.25089500  0.73356272  0.86252414    -0.06300
Br3890     Br  0.24561499  0.77633410  0.74294830    -0.03300
Br3891     Br  0.16360894  0.70819561  0.85013421    -0.00400
Br3892     Br  0.21279662  0.79143263  0.84588342    -0.04800
C3893       C  0.37272790  0.76255662  0.82643442    -0.12200
C3894       C  0.37650169  0.74639932  0.84226426     0.03300
C3895       C  0.38329650  0.74800923  0.86945013    -0.12700
C3896       C  0.38631724  0.76550035  0.88169356     0.18100
C3897       C  0.38193190  0.78166550  0.86631182    -0.09800
C3898       C  0.37517672  0.78011010  0.83902148    -0.02700
H3899       H  0.38647112  0.73547225  0.88109635     0.04700
C3900       C  0.39541738  0.76642728  0.90986856     0.20100
H3901       H  0.37216471  0.79271373  0.82747291     0.09800
C3902       C  0.41731370  0.77298720  0.91388137    -0.16100
C3903       C  0.42743643  0.77258178  0.93960588     0.02800
C3904       C  0.41544512  0.76566408  0.96234192    -0.11400
C3905       C  0.39337766  0.75920279  0.95819146    -0.01500
C3906       C  0.38341898  0.75948724  0.93234978    -0.06600
H3907       H  0.42689065  0.77792878  0.89662083     0.05800
H3908       H  0.38373132  0.75387114  0.97514189     0.09200
Br3909     Br  0.38444303  0.80611228  0.88195180    -0.06300
Br3910     Br  0.37160380  0.72166146  0.82860129    -0.03300
Br3911     Br  0.45829376  0.78021615  0.94129003    -0.00400
Br3912     Br  0.35325724  0.75049720  0.92881109    -0.04800
C3913       C  0.37097209  0.42108650  0.54795784    -0.12200
C3914       C  0.37300873  0.41409788  0.52115110     0.03300
C3915       C  0.38034515  0.39567201  0.51690322    -0.12700
C3916       C  0.38560944  0.38409068  0.53897565     0.18100
C3917       C  0.38295148  0.39085570  0.56557027    -0.09800
C3918       C  0.37568771  0.40905321  0.56982712    -0.02700
H3919       H  0.38258980  0.39054345  0.49635937     0.04700
C3920       C  0.39580002  0.36556807  0.53466410     0.20100
H3921       H  0.37409620  0.41390556  0.59060811     0.09800
C3922       C  0.41923910  0.36428472  0.53415476    -0.16100
C3923       C  0.42996765  0.34708507  0.53743802     0.02800
C3924       C  0.41711313  0.33077064  0.54096820    -0.11400
C3925       C  0.39361059  0.33196022  0.53966373    -0.01500
C3926       C  0.38292306  0.34919562  0.53649983    -0.06600
H3927       H  0.42922405  0.37689735  0.53330800     0.05800
H3928       H  0.38351823  0.31954596  0.54250188     0.09200
Br3929     Br  0.38997488  0.37598570  0.59690472    -0.06300
Br3930     Br  0.36798688  0.42927547  0.48967348    -0.03300
Br3931     Br  0.46195272  0.34719851  0.54108802    -0.00400
Br3932     Br  0.35079458  0.35003069  0.53710664    -0.04800
C3933       C  0.30190762  0.50019026  0.70944662    -0.12200
C3934       C  0.29918148  0.51649812  0.72530343     0.03300
C3935       C  0.28814330  0.51552749  0.75049920    -0.12700
C3936       C  0.27961422  0.49855351  0.76024869     0.18100
C3937       C  0.28238329  0.48232630  0.74460105    -0.09800
C3938       C  0.29345747  0.48321324  0.71958849    -0.02700
H3939       H  0.28599091  0.52810837  0.76243783     0.04700
C3940       C  0.26829176  0.49786487  0.78703735     0.20100
H3941       H  0.29528188  0.47050512  0.70785307     0.09800
C3942       C  0.24512824  0.50110169  0.78886845    -0.16100
C3943       C  0.23420984  0.50092804  0.81416337     0.02800
C3944       C  0.24650162  0.49725580  0.83805113    -0.11400
C3945       C  0.26959533  0.49374536  0.83600570    -0.01500
C3946       C  0.28048252  0.49404087  0.81084316    -0.06600
H3947       H  0.23563569  0.50417843  0.77064434     0.05800
H3948       H  0.27932452  0.49112574  0.85420895     0.09200
Br3949     Br  0.27095575  0.45869099  0.75648247    -0.06300
Br3950     Br  0.30854931  0.54064522  0.71291048    -0.03300
Br3951     Br  0.20316890  0.50766308  0.81528383    -0.00400
Br3952     Br  0.31218216  0.48971310  0.80999969    -0.04800
C3953       C  0.42012687  0.49927698  0.67411993    -0.12200
C3954       C  0.43954066  0.48804511  0.67112293     0.03300
C3955       C  0.45781133  0.49084691  0.68827202    -0.12700
C3956       C  0.45727564  0.50455707  0.70843604     0.18100
C3957       C  0.43824420  0.51578801  0.71158893    -0.09800
C3958       C  0.41983121  0.51301183  0.69466644    -0.02700
H3959       H  0.47263753  0.48226739  0.68587349     0.04700
C3960       C  0.47691580  0.50676605  0.72592259     0.20100
H3961       H  0.40529801  0.52182576  0.69756241     0.09800
C3962       C  0.49653584  0.51430840  0.71485926    -0.16100
C3963       C  0.51618796  0.51518593  0.73016974     0.02800
C3964       C  0.51624522  0.50824536  0.75699562    -0.11400
C3965       C  0.49632141  0.50100825  0.76809032    -0.01500
C3966       C  0.47677749  0.50011641  0.75272037    -0.06600
H3967       H  0.49664307  0.51915464  0.69400387     0.05800
H3968       H  0.49602261  0.49569552  0.78870236     0.09200
Br3969     Br  0.43701582  0.53549253  0.73800424    -0.06300
Br3970     Br  0.44331586  0.46900149  0.64403608    -0.03300
Br3971     Br  0.54249105  0.52469835  0.71246996    -0.00400
Br3972     Br  0.45075477  0.48862980  0.76848781    -0.04800
C3973       C  0.27126162  0.50795227  0.49878911    -0.12200
C3974       C  0.25885730  0.52438047  0.49343333     0.03300
C3975       C  0.23855660  0.52318661  0.47949414    -0.12700
C3976       C  0.23036994  0.50595542  0.47060287     0.18100
C3977       C  0.24308684  0.48974268  0.47466639    -0.09800
C3978       C  0.26336499  0.49082675  0.48865119    -0.02700
H3979       H  0.22909101  0.53578140  0.47546131     0.04700
C3980       C  0.20930819  0.50555709  0.45529110     0.20100
H3981       H  0.27247647  0.47805749  0.49255455     0.09800
C3982       C  0.21049343  0.50466217  0.42698232    -0.16100
C3983       C  0.19121052  0.50631363  0.41130883     0.02800
C3984       C  0.17029632  0.50905332  0.42403363    -0.11400
C3985       C  0.16891281  0.50899733  0.45251692    -0.01500
C3986       C  0.18838427  0.50740299  0.46823651    -0.06600
H3987       H  0.22657540  0.50297623  0.41704054     0.05800
H3988       H  0.15282660  0.51061740  0.46245822     0.09200
Br3989     Br  0.23299828  0.46575883  0.46246880    -0.06300
Br3990     Br  0.26867493  0.54894574  0.50364062    -0.03300
Br3991     Br  0.19440759  0.50391178  0.37261702    -0.00400
Br3992     Br  0.18588090  0.50785393  0.50712077    -0.04800
C3993       C  0.38261581  0.49813946  0.46784794    -0.12200
C3994       C  0.36874245  0.49377558  0.44533360     0.03300
C3995       C  0.37761206  0.49392866  0.41893634    -0.12700
C3996       C  0.40017189  0.49830579  0.41428638     0.18100
C3997       C  0.41412081  0.50239448  0.43655242    -0.09800
C3998       C  0.40533005  0.50236674  0.46298852    -0.02700
H3999       H  0.36670827  0.49102106  0.40182894     0.04700
C4000       C  0.40838552  0.49993861  0.38595058     0.20100
H4001       H  0.41634783  0.50566680  0.47983194     0.09800
C4002       C  0.40654080  0.51713403  0.37269805    -0.16100
C4003       C  0.41383017  0.51938911  0.34582604     0.02800
C4004       C  0.42299313  0.50405272  0.33139570    -0.11400
C4005       C  0.42510732  0.48686971  0.34508339    -0.01500
C4006       C  0.41790192  0.48474879  0.37203357    -0.06600
H4007       H  0.39952182  0.52895795  0.38347509     0.05800
H4008       H  0.43215692  0.47490016  0.33470531     0.09200
Br4009     Br  0.44520932  0.50830676  0.43158178    -0.06300
Br4010     Br  0.33718446  0.48892158  0.44871372    -0.03300
Br4011     Br  0.41187572  0.54412057  0.33110938    -0.00400
Br4012     Br  0.42131096  0.46088694  0.38907715    -0.04800
C4013       C  0.32119733  0.58097533  0.63076271    -0.12200
C4014       C  0.34041174  0.59239079  0.63274731     0.03300
C4015       C  0.33822106  0.61123370  0.63950161    -0.12700
C4016       C  0.31710961  0.61903150  0.64446139     0.18100
C4017       C  0.29788914  0.60768615  0.64267562    -0.09800
C4018       C  0.30000518  0.58880151  0.63562743    -0.02700
H4019       H  0.35306161  0.61991282  0.64069268     0.04700
C4020       C  0.31569349  0.63907331  0.65133828     0.20100
H4021       H  0.28513187  0.58018374  0.63418705     0.09800
C4022       C  0.31333185  0.65223258  0.63044379    -0.16100
C4023       C  0.31402580  0.67139670  0.63611968     0.02800
C4024       C  0.31651471  0.67758333  0.66321305    -0.11400
C4025       C  0.31817475  0.66434515  0.68411012    -0.01500
C4026       C  0.31836502  0.64525796  0.67828703    -0.06600
H4027       H  0.31156554  0.64756825  0.60959103     0.05800
H4028       H  0.32067670  0.66888165  0.70491583     0.09200
Br4029     Br  0.26858366  0.61744047  0.64989037    -0.06300
Br4030     Br  0.36995972  0.58332997  0.62464101    -0.03300
Br4031     Br  0.31140294  0.68850085  0.60627875    -0.00400
Br4032     Br  0.32415700  0.62820277  0.70743691    -0.04800
loop_ 
_geom_bond_atom_site_label_1 
_geom_bond_atom_site_label_2 
_geom_bond_distance 
_geom_bond_site_symmetry_2 
_ccdc_geom_bond_type 
Zr1           O2   2.442       .  S
Zr1           O3   2.462       .  S
Zr1           O4   2.437       .  S
Zr1           O7   2.420       .  S
Zr1           O9   2.374       .  S
Zr1          O10   2.379       .  S
Zr1          O11   2.415       .  S
Zr1          O12   2.408       .  S
O2           H58   0.991       .  S
O2           H66   0.989       .  S
O3           C23   1.287       .  A
O4           C25   1.283       .  A
O5          Zr15   2.413       .  S
O5           C24   1.279       .  A
O6          Zr14   2.433       .  S
O6           C25   1.283       .  A
O7           C24   1.283       .  A
O8          Zr16   2.403       .  S
O8           C23   1.278       .  A
O9          Zr14   2.393       .  S
O9          Zr16   2.387       .  S
O10         Zr15   2.390       .  S
O10         Zr16   2.375       .  S
O10          H45   0.966       .  S
O11         Zr14   2.388       .  S
O11         Zr31   2.402       .  S
O11          H48   0.963       .  S
O12         Zr15   2.383       .  S
O12         Zr31   2.399       .  S
Zr13         O38   2.453       .  S
Zr13         O32   2.437       .  S
Zr13         O40   2.465       .  S
Zr13         O28   2.445       .  S
Zr13         O19   2.399       .  S
Zr13         O20   2.408       .  S
Zr13         O21   2.389       .  S
Zr13         O22   2.382       .  S
Zr14         O33   2.436       .  S
Zr14         O26   2.434       .  S
Zr14         O27   2.401       .  S
Zr14         O20   2.404       .  S
Zr14         O21   2.394       .  S
Zr15         O17   2.434       .  S
Zr15         O39   2.436       .  S
Zr15         O41   2.402       .  S
Zr15         O19   2.390       .  S
Zr15         O22   2.384       .  S
Zr16         O42   2.436       .  S
Zr16         O43   2.435       .  S
Zr16         O18   2.436       .  S
Zr16         O19   2.387       .  S
Zr16         O20   2.384       .  S
O17          H54   0.990       .  S
O18          H49   0.990       .  S
O18          H63   0.990       .  S
O20          H46   0.966       .  S
O21         Zr31   2.375       .  S
O22         Zr31   2.372       .  S
O22          H47   0.965       .  S
C23        C3933   1.489       .  S
C24        C3953   1.481       .  S
C25        C4013   1.475       .  S
O26          H62   0.990       .  S
O27          C29   1.279       .  A
O28          C29   1.288       .  A
C29        C3973   1.476       .  S
O30         Zr31   2.439       .  S
O30          H59   0.990       .  S
Zr31         O34   2.438       .  S
Zr31         O35   2.439       .  S
Zr31         O36   2.438       .  S
O32          C37   1.285       .  A
O33          H50   0.990       .  S
O33          H65   0.990       .  S
O34          H51   0.990       .  S
O35          H55   0.990       .  S
O35          H64   0.990       .  S
O36          C37   1.286       .  A
C37        C3993   1.491       .  S
O38          H57   0.989       .  S
O38          H61   0.990       .  S
O39          H53   0.990       .  S
O39          H60   0.990       .  S
O40          C44   1.288       .  A
O41          C44   1.280       .  A
O42          H52   0.990       .  S
O43          H56   0.990       .  S
C44        C3913   1.488       .  S
Zr67         O68   2.440       .  S
Zr67         O69   2.445       .  S
Zr67         O70   2.434       .  S
Zr67         O73   2.419       .  S
Zr67         O75   2.375       .  S
Zr67         O76   2.381       .  S
Zr67         O77   2.412       .  S
Zr67         O78   2.406       .  S
O68         H124   0.991       .  S
O68         H132   0.990       .  S
O69          C89   1.284       .  A
O70          C91   1.282       .  A
O71         Zr81   2.415       .  S
O71          C90   1.281       .  A
O72         Zr80   2.433       .  S
O72          C91   1.283       .  A
O73          C90   1.282       .  A
O74         Zr82   2.419       .  S
O74          C89   1.281       .  A
O75         Zr80   2.389       .  S
O75         Zr82   2.380       .  S
O76         Zr81   2.393       .  S
O76         Zr82   2.378       .  S
O76         H111   0.967       .  S
O77         Zr80   2.392       .  S
O77         Zr97   2.401       .  S
O77         H114   0.964       .  S
O78         Zr81   2.385       .  S
O78         Zr97   2.402       .  S
Zr79        O104   2.438       .  S
Zr79         O98   2.441       .  S
Zr79        O106   2.461       .  S
Zr79         O94   2.434       .  S
Zr79         O85   2.400       .  S
Zr79         O86   2.414       .  S
Zr79         O87   2.390       .  S
Zr79         O88   2.376       .  S
Zr80         O99   2.437       .  S
Zr80         O92   2.438       .  S
Zr80         O93   2.401       .  S
Zr80         O86   2.405       .  S
Zr80         O87   2.397       .  S
Zr81         O83   2.435       .  S
Zr81        O105   2.433       .  S
Zr81        O107   2.412       .  S
Zr81         O85   2.390       .  S
Zr81         O88   2.387       .  S
Zr82        O108   2.435       .  S
Zr82        O109   2.437       .  S
Zr82         O84   2.437       .  S
Zr82         O85   2.400       .  S
Zr82         O86   2.385       .  S
O83         H120   0.990       .  S
O84         H115   0.990       .  S
O84         H129   0.990       .  S
O86         H112   0.965       .  S
O87         Zr97   2.370       .  S
O88         Zr97   2.370       .  S
O88         H113   0.966       .  S
C89        C3844   1.484       .  S
C90        C3853   1.471       .  S
C91        C4024   1.477       .  S
O92         H128   0.990       .  S
O93          C95   1.279       .  A
O94          C95   1.284       .  A
C95        C3873   1.449       .  S
O96         Zr97   2.438       .  S
O96         H125   0.990       .  S
Zr97        O100   2.437       .  S
Zr97        O101   2.437       .  S
Zr97        O102   2.449       .  S
O98         C103   1.286       .  A
O99         H116   0.990       .  S
O99         H131   0.990       .  S
O100        H117   0.990       .  S
O101        H121   0.990       .  S
O101        H130   0.990       .  S
O102        C103   1.287       .  A
C103       C3893   1.495       .  S
O104        H123   0.990       .  S
O104        H127   0.990       .  S
O105        H119   0.990       .  S
O105        H126   0.990       .  S
O106        C110   1.290       .  A
O107        C110   1.281       .  A
O108        H118   0.990       .  S
O109        H122   0.990       .  S
C110       C3813   1.484       .  S
Zr133       O134   2.443       .  S
Zr133       O135   2.466       .  S
Zr133       O136   2.445       .  S
Zr133       O139   2.443       .  S
Zr133       O141   2.379       .  S
Zr133       O142   2.382       .  S
Zr133       O143   2.416       .  S
Zr133       O144   2.410       .  S
O134        H190   0.990       .  S
O134        H198   0.991       .  S
O135        C155   1.289       .  A
O136        C157   1.284       .  A
O137       Zr147   2.404       .  S
O137        C156   1.280       .  A
O138       Zr146   2.442       .  S
O138        C157   1.285       .  A
O139        C156   1.286       .  A
O140       Zr148   2.399       .  S
O140        C155   1.278       .  A
O141       Zr146   2.395       .  S
O141       Zr148   2.388       .  S
O142       Zr147   2.391       .  S
O142       Zr148   2.375       .  S
O142        H177   0.966       .  S
O143       Zr146   2.397       .  S
O143       Zr163   2.401       .  S
O143        H180   0.965       .  S
O144       Zr147   2.391       .  S
O144       Zr163   2.398       .  S
Zr145       O170   2.439       .  S
Zr145       O164   2.431       .  S
Zr145       O172   2.478       .  S
Zr145       O160   2.435       .  S
Zr145       O151   2.396       .  S
Zr145       O152   2.410       .  S
Zr145       O153   2.391       .  S
Zr145       O154   2.380       .  S
Zr146       O165   2.437       .  S
Zr146       O158   2.436       .  S
Zr146       O159   2.427       .  S
Zr146       O152   2.400       .  S
Zr146       O153   2.403       .  S
Zr147       O149   2.436       .  S
Zr147       O171   2.440       .  S
Zr147       O173   2.411       .  S
Zr147       O151   2.388       .  S
Zr147       O154   2.393       .  S
Zr148       O174   2.434       .  S
Zr148       O175   2.434       .  S
Zr148       O150   2.436       .  S
Zr148       O151   2.388       .  S
Zr148       O152   2.378       .  S
O149        H186   0.990       .  S
O150        H181   0.990       .  S
O150        H195   0.990       .  S
O152        H178   0.964       .  S
O153       Zr163   2.373       .  S
O154       Zr163   2.377       .  S
O154        H179   0.966       .  S
C155       C3744   1.485       .  S
C156       C3753   1.471       .  S
C157       C3793   1.481       .  S
O158        H194   0.990       .  S
O159        C161   1.283       .  A
O160        C161   1.285       .  A
C161       C3773   1.464       .  S
O162       Zr163   2.439       .  S
O162        H191   0.991       .  S
Zr163       O166   2.436       .  S
Zr163       O167   2.439       .  S
Zr163       O168   2.440       .  S
O164        C169   1.284       .  A
O165        H182   0.990       .  S
O165        H197   0.990       .  S
O166        H183   0.990       .  S
O167        H187   0.990       .  S
O167        H196   0.990       .  S
O168        C169   1.284       .  A
C169       C4004   1.494       .  S
O170        H189   0.990       .  S
O170        H193   0.990       .  S
O171        H185   0.990       .  S
O171        H192   0.990       .  S
O172        C176   1.291       .  A
O173        C176   1.282       .  A
O174        H184   0.990       .  S
O175        H188   0.990       .  S
C176       C3713   1.500       .  S
Zr199       O200   2.442       .  S
Zr199       O201   2.465       .  S
Zr199       O202   2.444       .  S
Zr199       O205   2.444       .  S
Zr199       O207   2.377       .  S
Zr199       O208   2.385       .  S
Zr199       O209   2.421       .  S
Zr199       O210   2.401       .  S
O200        H256   0.990       .  S
O200        H264   0.990       .  S
O201        C221   1.288       .  A
O202        C223   1.285       .  A
O203       Zr213   2.394       .  S
O203        C222   1.277       .  A
O204       Zr212   2.435       .  S
O204        C223   1.285       .  A
O205        C222   1.286       .  A
O206       Zr214   2.399       .  S
O206        C221   1.278       .  A
O207       Zr212   2.393       .  S
O207       Zr214   2.381       .  S
O208       Zr213   2.388       .  S
O208       Zr214   2.380       .  S
O208        H243   0.966       .  S
O209       Zr212   2.395       .  S
O209       Zr229   2.408       .  S
O209        H246   0.966       .  S
O210       Zr213   2.383       .  S
O210       Zr229   2.391       .  S
Zr211       O236   2.450       .  S
Zr211       O230   2.436   1_554  S
Zr211       O238   2.451       .  S
Zr211       O226   2.430       .  S
Zr211       O217   2.400       .  S
Zr211       O218   2.407       .  S
Zr211       O219   2.387       .  S
Zr211       O220   2.375       .  S
Zr212       O231   2.435       .  S
Zr212       O224   2.435       .  S
Zr212       O225   2.417       .  S
Zr212       O218   2.399       .  S
Zr212       O219   2.391       .  S
Zr213       O215   2.435       .  S
Zr213       O237   2.436       .  S
Zr213       O239   2.400       .  S
Zr213       O217   2.385       .  S
Zr213       O220   2.383       .  S
Zr214       O240   2.436       .  S
Zr214       O241   2.435       .  S
Zr214       O216   2.438       .  S
Zr214       O217   2.395       .  S
Zr214       O218   2.382       .  S
O215        H252   0.990       .  S
O216        H247   0.990       .  S
O216        H261   0.990       .  S
O218        H244   0.966       .  S
O219       Zr229   2.370       .  S
O220       Zr229   2.373       .  S
O220        H245   0.966       .  S
C221       C3653   1.499       .  S
C222       C3693   1.466       .  S
C223       C3804   1.484       .  S
O224        H260   0.990       .  S
O225        C227   1.282       .  A
O226        C227   1.285       .  A
C227       C3684   1.464   1_554  S
O228       Zr229   2.439       .  S
O228        H257   0.991       .  S
Zr229       O232   2.438       .  S
Zr229       O233   2.438       .  S
Zr229       O234   2.438       .  S
O230        C235   1.285       .  A
O231        H248   0.990       .  S
O231        H263   0.990       .  S
O232        H249   0.990       .  S
O233        H253   0.990       .  S
O233        H262   0.991       .  S
O234        C235   1.286   1_554  A
C235       C3904   1.495       .  S
O236        H255   0.989       .  S
O236        H259   0.991       .  S
O237        H251   0.990       .  S
O237        H258   0.990       .  S
O238        C242   1.286       .  A
O239        C242   1.279       .  A
O240        H250   0.990       .  S
O241        H254   0.990       .  S
C242       C3633   1.487       .  S
Zr265       O266   2.440       .  S
Zr265       O267   2.429       .  S
Zr265       O268   2.438       .  S
Zr265       O271   2.425       .  S
Zr265       O273   2.376       .  S
Zr265       O274   2.385       .  S
Zr265       O275   2.406       .  S
Zr265       O276   2.400       .  S
O266        H322   0.990       .  S
O266        H330   0.990       .  S
O267        C287   1.282       .  A
O268        C289   1.283       .  A
O269       Zr279   2.410       .  S
O269        C288   1.281       .  A
O270       Zr278   2.432       .  S
O270        C289   1.284       .  A
O271        C288   1.283       .  A
O272       Zr280   2.435       .  S
O272        C287   1.284       .  A
O273       Zr278   2.392       .  S
O273       Zr280   2.376       .  S
O274       Zr279   2.395       .  S
O274       Zr280   2.369       .  S
O274        H309   0.967       .  S
O275       Zr278   2.393       .  S
O275       Zr295   2.398       .  S
O275        H312   0.968       .  S
O276       Zr279   2.394       .  S
O276       Zr295   2.388       .  S
Zr277       O302   2.441       .  S
Zr277       O296   2.444       .  S
Zr277       O304   2.432       .  S
Zr277       O292   2.427       .  S
Zr277       O283   2.404       .  S
Zr277       O284   2.413       .  S
Zr277       O285   2.383       .  S
Zr277       O286   2.377       .  S
Zr278       O297   2.435       .  S
Zr278       O290   2.434       .  S
Zr278       O291   2.423       .  S
Zr278       O284   2.403       .  S
Zr278       O285   2.393       .  S
Zr279       O281   2.435       .  S
Zr279       O303   2.435       .  S
Zr279       O305   2.436       .  S
Zr279       O283   2.389       .  S
Zr279       O286   2.384       .  S
Zr280       O306   2.436       .  S
Zr280       O307   2.436       .  S
Zr280       O282   2.436       .  S
Zr280       O283   2.399       .  S
Zr280       O284   2.393       .  S
O281        H318   0.990       .  S
O282        H313   0.990       .  S
O282        H327   0.990       .  S
O284        H310   0.964       .  S
O285       Zr295   2.380       .  S
O286       Zr295   2.382       .  S
O286        H311   0.966       .  S
C287       C3604   1.490       .  S
C288       C3573   1.458       .  S
C289       C3533   1.478       .  S
O290        H326   0.990       .  S
O291        C293   1.283       .  A
O292        C293   1.282       .  A
C293       C3984   1.465       .  S
O294       Zr295   2.440       .  S
O294        H323   0.990       .  S
Zr295       O298   2.438       .  S
Zr295       O299   2.440       .  S
Zr295       O300   2.408       .  S
O296        C301   1.284       .  A
O297        H314   0.990       .  S
O297        H329   0.990       .  S
O298        H315   0.990       .  S
O299        H319   0.990       .  S
O299        H328   0.990       .  S
O300        C301   1.280       .  A
C301       C3553   1.487       .  S
O302        H321   0.990       .  S
O302        H325   0.990       .  S
O303        H317   0.990       .  S
O303        H324   0.990       .  S
O304        C308   1.283       .  A
O305        C308   1.285       .  A
O306        H316   0.990       .  S
O307        H320   0.990       .  S
C308       C3613   1.482       .  S
Zr331       O332   2.441       .  S
Zr331       O333   2.427       .  S
Zr331       O334   2.465       .  S
Zr331       O337   2.426       .  S
Zr331       O339   2.377       .  S
Zr331       O340   2.392       .  S
Zr331       O341   2.401       .  S
Zr331       O342   2.406       .  S
O332        H388   0.990       .  S
O332        H396   0.990       .  S
O333        C353   1.281       .  A
O334        C355   1.288       .  A
O335       Zr345   2.420       .  S
O335        C354   1.283       .  A
O336       Zr344   2.398       .  S
O336        C355   1.279       .  A
O337        C354   1.283       .  A
O338       Zr346   2.437       .  S
O338        C353   1.285       .  A
O339       Zr344   2.390       .  S
O339       Zr346   2.379       .  S
O340       Zr345   2.393       .  S
O340       Zr346   2.367       .  S
O340        H375   0.965       .  S
O341       Zr344   2.395       .  S
O341       Zr361   2.393       .  S
O341        H378   0.966       .  S
O342       Zr345   2.396       .  S
O342       Zr361   2.383       .  S
Zr343       O368   2.443       .  S
Zr343       O362   2.471       .  S
Zr343       O370   2.438       .  S
Zr343       O358   2.438       .  S
Zr343       O349   2.412       .  S
Zr343       O350   2.415       .  S
Zr343       O351   2.376       .  S
Zr343       O352   2.382       .  S
Zr344       O363   2.435       .  S
Zr344       O356   2.435       .  S
Zr344       O357   2.410       .  S
Zr344       O350   2.388       .  S
Zr344       O351   2.390       .  S
Zr345       O347   2.433       .  S
Zr345       O369   2.440       .  S
Zr345       O371   2.438       .  S
Zr345       O349   2.387       .  S
Zr345       O352   2.395       .  S
Zr346       O372   2.437       .  S
Zr346       O373   2.435       .  S
Zr346       O348   2.436       .  S
Zr346       O349   2.398       .  S
Zr346       O350   2.397       .  S
O347        H384   0.990       .  S
O348        H379   0.990       .  S
O348        H393   0.990       .  S
O350        H376   0.966       .  S
O351       Zr361   2.384       .  S
O352       Zr361   2.385       .  S
O352        H377   0.967       .  S
C353       C3524   1.492       .  S
C354       C3473   1.458       .  S
C355       C3433   1.486       .  S
O356        H392   0.990       .  S
O357        C359   1.280       .  A
O358        C359   1.284       .  A
C359       C3493   1.464       .  S
O360       Zr361   2.440       .  S
O360        H389   0.990       .  S
Zr361       O364   2.437       .  S
Zr361       O365   2.441       .  S
Zr361       O366   2.407       .  S
O362        C367   1.289       .  A
O363        H380   0.990       .  S
O363        H395   0.990       .  S
O364        H381   0.990       .  S
O365        H385   0.990       .  S
O365        H394   0.989       .  S
O366        C367   1.279       .  A
C367       C3453   1.486       .  S
O368        H387   0.991       .  S
O368        H391   0.990       .  S
O369        H383   0.990       .  S
O369        H390   0.990       .  S
O370        C374   1.284       .  A
O371        C374   1.285       .  A
O372        H382   0.990       .  S
O373        H386   0.991       .  S
C374       C3624   1.487       .  S
Zr397       O398   2.437       .  S
Zr397       O399   2.427       .  S
Zr397       O400   2.459       .  S
Zr397       O403   2.423       .  S
Zr397       O405   2.378   1_554  S
Zr397       O406   2.389       .  S
Zr397       O407   2.399   1_554  S
Zr397       O408   2.403   1_554  S
O398        H454   0.990       .  S
O398        H462   0.990       .  S
O399        C419   1.282       .  A
O400        C421   1.288   1_554  A
O401       Zr411   2.422   1_554  S
O401        C420   1.283       .  A
O402       Zr410   2.410       .  S
O402        C421   1.281       .  A
O403        C420   1.284       .  A
O404       Zr412   2.444   1_554  S
O404        C419   1.286       .  A
O405       Zr410   2.390       .  S
O405       Zr412   2.381       .  S
O406       Zr411   2.391   1_554  S
O406       Zr412   2.372   1_554  S
O406        H441   0.966       .  S
O407       Zr410   2.391       .  S
O407       Zr427   2.396       .  S
O407        H444   0.968       .  S
O408       Zr411   2.395       .  S
O408       Zr427   2.388       .  S
Zr409       O434   2.447       .  S
Zr409       O428   2.454       .  S
Zr409       O436   2.428       .  S
Zr409       O424   2.424       .  S
Zr409       O415   2.405       .  S
Zr409       O416   2.411       .  S
Zr409       O417   2.376       .  S
Zr409       O418   2.379       .  S
Zr410       O429   2.437       .  S
Zr410       O422   2.435       .  S
Zr410       O423   2.411       .  S
Zr410       O416   2.390       .  S
Zr410       O417   2.384       .  S
Zr411       O413   2.436       .  S
Zr411       O435   2.436   1_556  S
Zr411       O437   2.433       .  S
Zr411       O415   2.382       .  S
Zr411       O418   2.388       .  S
Zr412       O438   2.435   1_556  S
Zr412       O439   2.436       .  S
Zr412       O414   2.439       .  S
Zr412       O415   2.401       .  S
Zr412       O416   2.403       .  S
O413        H450   0.990       .  S
O414        H445   0.991   1_556  S
O414        H459   0.990       .  S
O416        H442   0.965       .  S
O417       Zr427   2.374       .  S
O418       Zr427   2.376       .  S
O418        H443   0.965       .  S
C419       C3593   1.485       .  S
C420       C3764   1.473       .  S
C421       C3373   1.485       .  S
O422        H458   0.990       .  S
O423        C425   1.283       .  A
O424        C425   1.281       .  A
C425       C3404   1.481       .  S
O426       Zr427   2.439       .  S
O426        H455   0.991       .  S
Zr427       O430   2.438       .  S
Zr427       O431   2.439       .  S
Zr427       O432   2.417       .  S
O428        C433   1.288       .  A
O429        H446   0.990       .  S
O429        H461   0.990       .  S
O430        H447   0.990       .  S
O431        H451   0.990       .  S
O431        H460   0.990       .  S
O432        C433   1.281       .  A
C433       C3944   1.479       .  S
O434        H453   0.990       .  S
O434        H457   0.990       .  S
O435        H449   0.990       .  S
O435        H456   0.989       .  S
O436        C440   1.283       .  A
O437        C440   1.284       .  A
O438        H448   0.990       .  S
O439        H452   0.990       .  S
C440       C3413   1.468       .  S
Zr463       O464   2.440       .  S
Zr463       O465   2.433       .  S
Zr463       O466   2.438       .  S
Zr463       O469   2.422       .  S
Zr463       O471   2.378       .  S
Zr463       O472   2.384       .  S
Zr463       O473   2.404       .  S
Zr463       O474   2.397       .  S
O464        H520   0.990       .  S
O464        H528   0.990       .  S
O465        C485   1.283       .  A
O466        C487   1.283       .  A
O467       Zr477   2.416       .  S
O467        C486   1.282       .  A
O468       Zr476   2.415       .  S
O468        C487   1.283       .  A
O469        C486   1.284       .  A
O470       Zr478   2.435       .  S
O470        C485   1.284       .  A
O471       Zr476   2.390       .  S
O471       Zr478   2.376       .  S
O472       Zr477   2.389       .  S
O472       Zr478   2.373       .  S
O472        H507   0.966       .  S
O473       Zr476   2.392       .  S
O473       Zr493   2.401       .  S
O473        H510   0.968       .  S
O474       Zr477   2.387       .  S
O474       Zr493   2.390       .  S
Zr475       O500   2.443       .  S
Zr475       O494   2.454       .  S
Zr475       O502   2.417       .  S
Zr475       O490   2.419       .  S
Zr475       O481   2.407       .  S
Zr475       O482   2.411       .  S
Zr475       O483   2.373       .  S
Zr475       O484   2.375       .  S
Zr476       O495   2.433       .  S
Zr476       O488   2.434       .  S
Zr476       O489   2.418       .  S
Zr476       O482   2.391       .  S
Zr476       O483   2.389       .  S
Zr477       O479   2.434       .  S
Zr477       O501   2.437       .  S
Zr477       O503   2.416       .  S
Zr477       O481   2.387       .  S
Zr477       O484   2.394       .  S
Zr478       O504   2.438       .  S
Zr478       O505   2.436       .  S
Zr478       O480   2.437       .  S
Zr478       O481   2.399       .  S
Zr478       O482   2.394       .  S
O479        H516   0.990       .  S
O480        H511   0.990       .  S
O480        H525   0.990       .  S
O482        H508   0.965       .  S
O483       Zr493   2.378       .  S
O484       Zr493   2.383       .  S
O484        H509   0.966       .  S
C485       C3513   1.492       .  S
C486       C3364   1.473       .  S
C487       C3293   1.488       .  S
O488        H524   0.990       .  S
O489        C491   1.281       .  A
O490        C491   1.282       .  A
C491       C3344   1.471       .  S
O492       Zr493   2.439       .  S
O492        H521   0.990       .  S
Zr493       O496   2.437       .  S
Zr493       O497   2.440       .  S
Zr493       O498   2.421       .  S
O494        C499   1.287       .  A
O495        H512   0.990       .  S
O495        H527   0.990       .  S
O496        H513   0.990       .  S
O497        H517   0.990       .  S
O497        H526   0.990       .  S
O498        C499   1.281       .  A
C499       C3324   1.486       .  S
O500        H519   0.990       .  S
O500        H523   0.991       .  S
O501        H515   0.990       .  S
O501        H522   0.989       .  S
O502        C506   1.279       .  A
O503        C506   1.280       .  A
O504        H514   0.990       .  S
O505        H518   0.991       .  S
C506       C3424   1.460       .  S
Zr529       O530   2.439       .  S
Zr529       O531   2.460       .  S
Zr529       O532   2.440       .  S
Zr529       O535   2.437       .  S
Zr529       O537   2.378       .  S
Zr529       O538   2.383       .  S
Zr529       O539   2.413       .  S
Zr529       O540   2.405       .  S
O530        H586   0.989       .  S
O530        H594   0.991       .  S
O531        C551   1.288       .  A
O532        C553   1.285       .  A
O533       Zr543   2.410       .  S
O533        C552   1.280       .  A
O534       Zr542   2.440       .  S
O534        C553   1.285       .  A
O535        C552   1.285       .  A
O536       Zr544   2.419       .  S
O536        C551   1.282       .  A
O537       Zr542   2.398       .  S
O537       Zr544   2.381       .  S
O538       Zr543   2.396       .  S
O538       Zr544   2.376       .  S
O538        H573   0.966       .  S
O539       Zr542   2.398       .  S
O539       Zr559   2.398       .  S
O539        H576   0.964       .  S
O540       Zr543   2.390       .  S
O540       Zr559   2.394       .  S
Zr541       O566   2.432       .  S
Zr541       O560   2.426       .  S
Zr541       O568   2.469       .  S
Zr541       O556   2.421       .  S
Zr541       O547   2.397       .  S
Zr541       O548   2.407       .  S
Zr541       O549   2.388       .  S
Zr541       O550   2.376       .  S
Zr542       O561   2.440       .  S
Zr542       O554   2.435       .  S
Zr542       O555   2.435       .  S
Zr542       O548   2.397       .  S
Zr542       O549   2.390       .  S
Zr543       O545   2.436       .  S
Zr543       O567   2.434       .  S
Zr543       O569   2.426       .  S
Zr543       O547   2.386       .  S
Zr543       O550   2.389       .  S
Zr544       O570   2.434       .  S
Zr544       O571   2.435       .  S
Zr544       O546   2.437       .  S
Zr544       O547   2.402       .  S
Zr544       O548   2.384       .  S
O545        H582   0.990       .  S
O546        H577   0.990       .  S
O546        H591   0.990       .  S
O548        H574   0.967       .  S
O549       Zr559   2.371       .  S
O550       Zr559   2.379       .  S
O550        H575   0.966       .  S
C551       C3313   1.497       .  S
C552       C3233   1.465       .  S
C553       C3273   1.488       .  S
O554        H590   0.990       .  S
O555        C557   1.286       .  A
O556        C557   1.283       .  A
C557       C3504   1.466       .  S
O558       Zr559   2.439       .  S
O558        H587   0.990       .  S
Zr559       O562   2.437       .  S
Zr559       O563   2.441       .  S
Zr559       O564   2.433       .  S
O560        C565   1.284       .  A
O561        H578   0.990       .  S
O561        H593   0.990       .  S
O562        H579   0.990       .  S
O563        H583   0.990       .  S
O563        H592   0.990       .  S
O564        C565   1.284       .  A
C565       C3264   1.482       .  S
O566        H585   0.990       .  S
O566        H589   0.990       .  S
O567        H581   0.990       .  S
O567        H588   0.990       .  S
O568        C572   1.290       .  A
O569        C572   1.284       .  A
O570        H580   0.990       .  S
O571        H584   0.990       .  S
C572       C3724   1.499       .  S
Zr595       O596   2.440       .  S
Zr595       O597   2.446       .  S
Zr595       O598   2.447       .  S
Zr595       O601   2.437       .  S
Zr595       O603   2.378       .  S
Zr595       O604   2.384   1_545  S
Zr595       O605   2.412       .  S
Zr595       O606   2.404       .  S
O596        H652   0.990       .  S
O596        H660   0.989       .  S
O597        C617   1.284       .  A
O598        C619   1.286       .  A
O599       Zr609   2.411       .  S
O599        C618   1.281   1_565  A
O600       Zr608   2.441       .  S
O600        C619   1.285       .  A
O601        C618   1.284       .  A
O602       Zr610   2.403       .  S
O602        C617   1.277   1_565  A
O603       Zr608   2.394       .  S
O603       Zr610   2.385   1_545  S
O604       Zr609   2.392       .  S
O604       Zr610   2.378       .  S
O604        H639   0.966       .  S
O605       Zr608   2.393       .  S
O605       Zr625   2.391       .  S
O605        H642   0.967       .  S
O606       Zr609   2.389   1_545  S
O606       Zr625   2.393       .  S
Zr607       O632   2.441       .  S
Zr607       O626   2.435   1_554  S
Zr607       O634   2.450       .  S
Zr607       O622   2.424       .  S
Zr607       O613   2.399       .  S
Zr607       O614   2.406       .  S
Zr607       O615   2.387   1_565  S
Zr607       O616   2.379       .  S
Zr608       O627   2.436       .  S
Zr608       O620   2.436       .  S
Zr608       O621   2.414       .  S
Zr608       O614   2.400   1_545  S
Zr608       O615   2.397       .  S
Zr609       O611   2.437       .  S
Zr609       O633   2.436       .  S
Zr609       O635   2.414       .  S
Zr609       O613   2.389       .  S
Zr609       O616   2.390       .  S
Zr610       O636   2.435       .  S
Zr610       O637   2.435       .  S
Zr610       O612   2.437       .  S
Zr610       O613   2.397       .  S
Zr610       O614   2.377       .  S
O611        H648   0.990       .  S
O612        H643   0.990       .  S
O612        H657   0.990   1_565  S
O614        H640   0.962       .  S
O615       Zr625   2.375       .  S
O616       Zr625   2.378   1_565  S
O616        H641   0.966       .  S
C617       C3153   1.466       .  S
C618       C3184   1.469       .  S
C619       C3284   1.482       .  S
O620        H656   0.990       .  S
O621        C623   1.281       .  A
O622        C623   1.283   1_565  A
C623       C3204   1.454   1_554  S
O624       Zr625   2.438       .  S
O624        H653   0.990       .  S
Zr625       O628   2.438       .  S
Zr625       O629   2.439       .  S
Zr625       O630   2.422   1_554  S
O626        C631   1.284   1_565  A
O627        H644   0.990       .  S
O627        H659   0.990       .  S
O628        H645   0.990       .  S
O629        H649   0.990       .  S
O629        H658   0.990       .  S
O630        C631   1.282       .  A
C631       C3224   1.478       .  S
O632        H651   0.990   1_554  S
O632        H655   0.990       .  S
O633        H647   0.990       .  S
O633        H654   0.990       .  S
O634        C638   1.285       .  A
O635        C638   1.281       .  A
O636        H646   0.990       .  S
O637        H650   0.990       .  S
C638       C3644   1.479       .  S
Zr661       O662   2.442       .  S
Zr661       O663   2.449       .  S
Zr661       O664   2.438       .  S
Zr661       O667   2.430       .  S
Zr661       O669   2.376       .  S
Zr661       O670   2.389       .  S
Zr661       O671   2.413       .  S
Zr661       O672   2.399       .  S
O662        H718   0.990       .  S
O662        H726   0.990       .  S
O663        C683   1.286       .  A
O664        C685   1.284       .  A
O665       Zr675   2.418       .  S
O665        C684   1.283       .  A
O666       Zr674   2.430       .  S
O666        C685   1.281       .  A
O667        C684   1.283       .  A
O668       Zr676   2.415       .  S
O668        C683   1.279       .  A
O669       Zr674   2.396       .  S
O669       Zr676   2.386       .  S
O670       Zr675   2.394       .  S
O670       Zr676   2.384       .  S
O670        H705   0.967       .  S
O671       Zr674   2.392       .  S
O671       Zr691   2.407       .  S
O671        H708   0.964       .  S
O672       Zr675   2.381       .  S
O672       Zr691   2.381       .  S
Zr673       O698   2.440       .  S
Zr673       O692   2.432       .  S
Zr673       O700   2.452       .  S
Zr673       O688   2.439       .  S
Zr673       O679   2.405       .  S
Zr673       O680   2.404       .  S
Zr673       O681   2.382       .  S
Zr673       O682   2.381       .  S
Zr674       O693   2.435       .  S
Zr674       O686   2.435       .  S
Zr674       O687   2.413       .  S
Zr674       O680   2.400       .  S
Zr674       O681   2.391       .  S
Zr675       O677   2.437       .  S
Zr675       O699   2.435       .  S
Zr675       O701   2.417       .  S
Zr675       O679   2.390       .  S
Zr675       O682   2.394       .  S
Zr676       O702   2.436       .  S
Zr676       O703   2.435       .  S
Zr676       O678   2.436       .  S
Zr676       O679   2.400       .  S
Zr676       O680   2.385       .  S
O677        H714   0.990       .  S
O678        H709   0.990       .  S
O678        H723   0.989       .  S
O680        H706   0.962       .  S
O681       Zr691   2.377       .  S
O682       Zr691   2.377       .  S
O682        H707   0.967       .  S
C683       C3093   1.486       .  S
C684       C3353   1.468       .  S
C685       C3133   1.497       .  S
O686        H722   0.990       .  S
O687        C689   1.281       .  A
O688        C689   1.285       .  A
C689       C3113   1.460       .  S
O690       Zr691   2.438       .  S
O690        H719   0.991       .  S
Zr691       O694   2.436       .  S
Zr691       O695   2.440       .  S
Zr691       O696   2.427       .  S
O692        C697   1.283       .  A
O693        H710   0.990       .  S
O693        H725   0.990       .  S
O694        H711   0.990       .  S
O695        H715   0.990       .  S
O695        H724   0.990       .  S
O696        C697   1.282       .  A
C697       C3253   1.481       .  S
O698        H717   0.991       .  S
O698        H721   0.989       .  S
O699        H713   0.991       .  S
O699        H720   0.989       .  S
O700        C704   1.286       .  A
O701        C704   1.281       .  A
O702        H712   0.989       .  S
O703        H716   0.990       .  S
C704       C3924   1.476       .  S
Zr727       O728   2.442       .  S
Zr727       O729   2.456       .  S
Zr727       O730   2.442       .  S
Zr727       O733   2.428       .  S
Zr727       O735   2.373       .  S
Zr727       O736   2.381   1_545  S
Zr727       O737   2.411       .  S
Zr727       O738   2.407       .  S
O728        H784   0.990       .  S
O728        H792   0.990       .  S
O729        C749   1.287       .  A
O730        C751   1.286       .  A
O731       Zr741   2.409       .  S
O731        C750   1.281   1_565  A
O732       Zr740   2.438       .  S
O732        C751   1.283       .  A
O733        C750   1.283       .  A
O734       Zr742   2.408       .  S
O734        C749   1.279   1_565  A
O735       Zr740   2.391       .  S
O735       Zr742   2.385   1_545  S
O736       Zr741   2.394       .  S
O736       Zr742   2.380       .  S
O736        H771   0.966       .  S
O737       Zr740   2.390       .  S
O737       Zr757   2.394       .  S
O737        H774   0.964       .  S
O738       Zr741   2.386   1_545  S
O738       Zr757   2.391       .  S
Zr739       O764   2.450       .  S
Zr739       O758   2.439       .  S
Zr739       O766   2.457       .  S
Zr739       O754   2.428       .  S
Zr739       O745   2.393       .  S
Zr739       O746   2.410       .  S
Zr739       O747   2.386   1_565  S
Zr739       O748   2.381       .  S
Zr740       O759   2.438       .  S
Zr740       O752   2.436       .  S
Zr740       O753   2.401       .  S
Zr740       O746   2.404   1_545  S
Zr740       O747   2.388       .  S
Zr741       O743   2.436       .  S
Zr741       O765   2.434       .  S
Zr741       O767   2.416       .  S
Zr741       O745   2.384       .  S
Zr741       O748   2.383       .  S
Zr742       O768   2.435       .  S
Zr742       O769   2.437       .  S
Zr742       O744   2.437       .  S
Zr742       O745   2.389       .  S
Zr742       O746   2.389       .  S
O743        H780   0.990       .  S
O744        H775   0.990       .  S
O744        H789   0.990       .  S
O746        H772   0.966       .  S
O747       Zr757   2.366       .  S
O748       Zr757   2.377   1_565  S
O748        H773   0.967       .  S
C749       C3033   1.491       .  S
C750       C3084   1.465       .  S
C751       C3144   1.499       .  S
O752        H788   0.990       .  S
O753        C755   1.279       .  A
O754        C755   1.283   1_565  A
C755       C3053   1.449       .  S
O756       Zr757   2.439       .  S
O756        H785   0.991       .  S
Zr757       O760   2.438       .  S
Zr757       O761   2.437       .  S
Zr757       O762   2.427       .  S
O758        C763   1.287   1_565  A
O759        H776   0.990       .  S
O759        H791   0.990       .  S
O760        H777   0.990       .  S
O761        H781   0.989       .  S
O761        H790   0.990       .  S
O762        C763   1.283       .  A
C763       C3213   1.485       .  S
O764        H783   0.990       .  S
O764        H787   0.990       .  S
O765        H779   0.990       .  S
O765        H786   0.990       .  S
O766        C770   1.288       .  A
O767        C770   1.283       .  A
O768        H778   0.990       .  S
O769        H782   0.990       .  S
C770       C3824   1.492       .  S
Zr793       O794   2.441       .  S
Zr793       O795   2.426       .  S
Zr793       O796   2.447       .  S
Zr793       O799   2.425       .  S
Zr793       O801   2.377       .  S
Zr793       O802   2.389   1_545  S
Zr793       O803   2.401       .  S
Zr793       O804   2.405       .  S
O794        H850   0.991       .  S
O794        H858   0.990       .  S
O795        C815   1.281       .  A
O796        C817   1.286       .  A
O797       Zr807   2.427       .  S
O797        C816   1.284   1_565  A
O798       Zr806   2.421       .  S
O798        C817   1.282       .  A
O799        C816   1.284       .  A
O800       Zr808   2.420       .  S
O800        C815   1.282   1_565  A
O801       Zr806   2.387       .  S
O801       Zr808   2.378   1_545  S
O802       Zr807   2.393       .  S
O802       Zr808   2.369       .  S
O802        H837   0.966       .  S
O803       Zr806   2.393       .  S
O803       Zr823   2.402       .  S
O803        H840   0.968       .  S
O804       Zr807   2.396   1_545  S
O804       Zr823   2.394       .  S
Zr805       O830   2.441       .  S
Zr805       O824   2.439       .  S
Zr805       O832   2.423       .  S
Zr805       O820   2.432       .  S
Zr805       O811   2.409       .  S
Zr805       O812   2.405       .  S
Zr805       O813   2.380   1_565  S
Zr805       O814   2.379       .  S
Zr806       O825   2.435       .  S
Zr806       O818   2.432       .  S
Zr806       O819   2.410       .  S
Zr806       O812   2.392   1_545  S
Zr806       O813   2.391       .  S
Zr807       O809   2.434       .  S
Zr807       O831   2.436       .  S
Zr807       O833   2.438       .  S
Zr807       O811   2.391       .  S
Zr807       O814   2.388       .  S
Zr808       O834   2.437       .  S
Zr808       O835   2.435       .  S
Zr808       O810   2.436       .  S
Zr808       O811   2.396       .  S
Zr808       O812   2.389       .  S
O809        H846   0.990       .  S
O810        H841   0.990       .  S
O810        H855   0.990   1_565  S
O812        H838   0.966       .  S
O813       Zr823   2.378       .  S
O814       Zr823   2.380   1_565  S
O814        H839   0.964       .  S
C815       C3004   1.481       .  S
C816       C3173   1.469       .  S
C817       C2953   1.488       .  S
O818        H854   0.990       .  S
O819        C821   1.280       .  A
O820        C821   1.284   1_565  A
C821       C2973   1.472       .  S
O822       Zr823   2.439       .  S
O822        H851   0.990       .  S
Zr823       O826   2.435       .  S
Zr823       O827   2.440       .  S
Zr823       O828   2.423       .  S
O824        C829   1.284   1_565  A
O825        H842   0.990       .  S
O825        H857   0.989       .  S
O826        H843   0.990       .  S
O827        H847   0.990       .  S
O827        H856   0.990       .  S
O828        C829   1.282       .  A
C829       C3044   1.477       .  S
O830        H849   0.990       .  S
O830        H853   0.990       .  S
O831        H845   0.990       .  S
O831        H852   0.989       .  S
O832        C836   1.281       .  A
O833        C836   1.286       .  A
O834        H844   0.990       .  S
O835        H848   0.991       .  S
C836       C3013   1.486       .  S
Zr859       O860   2.441       .  S
Zr859       O861   2.450       .  S
Zr859       O862   2.466       .  S
Zr859       O865   2.441       .  S
Zr859       O867   2.376       .  S
Zr859       O868   2.387       .  S
Zr859       O869   2.407       .  S
Zr859       O870   2.413       .  S
O860        H916   0.990       .  S
O860        H924   0.991       .  S
O861        C881   1.285       .  A
O862        C883   1.289       .  A
O863       Zr873   2.414       .  S
O863        C882   1.282       .  A
O864       Zr872   2.402       .  S
O864        C883   1.280       .  A
O865        C882   1.287       .  A
O866       Zr874   2.415       .  S
O866        C881   1.282       .  A
O867       Zr872   2.390       .  S
O867       Zr874   2.379       .  S
O868       Zr873   2.395       .  S
O868       Zr874   2.371       .  S
O868        H903   0.966       .  S
O869       Zr872   2.391       .  S
O869       Zr889   2.396       .  S
O869        H906   0.967       .  S
O870       Zr873   2.396       .  S
O870       Zr889   2.393       .  S
Zr871       O896   2.441       .  S
Zr871       O890   2.444       .  S
Zr871       O898   2.431       .  S
Zr871       O886   2.459       .  S
Zr871       O877   2.400       .  S
Zr871       O878   2.408       .  S
Zr871       O879   2.380       .  S
Zr871       O880   2.383       .  S
Zr872       O891   2.436       .  S
Zr872       O884   2.435       .  S
Zr872       O885   2.397       .  S
Zr872       O878   2.400       .  S
Zr872       O879   2.391       .  S
Zr873       O875   2.436       .  S
Zr873       O897   2.437       .  S
Zr873       O899   2.434       .  S
Zr873       O877   2.386       .  S
Zr873       O880   2.388       .  S
Zr874       O900   2.438       .  S
Zr874       O901   2.435       .  S
Zr874       O876   2.438       .  S
Zr874       O877   2.389       .  S
Zr874       O878   2.393       .  S
O875        H912   0.990       .  S
O876        H907   0.990       .  S
O876        H921   0.990       .  S
O878        H904   0.967       .  S
O879       Zr889   2.381       .  S
O880       Zr889   2.382       .  S
O880        H905   0.966       .  S
C881       C2933   1.499       .  S
C882       C3864   1.472       .  S
C883       C2893   1.484       .  S
O884        H920   0.990       .  S
O885        C887   1.278       .  A
O886        C887   1.287       .  A
C887       C2913   1.482       .  S
O888       Zr889   2.440       .  S
O888        H917   0.990       .  S
Zr889       O892   2.436       .  S
Zr889       O893   2.443       .  S
Zr889       O894   2.410       .  S
O890        C895   1.284       .  A
O891        H908   0.990       .  S
O891        H923   0.990       .  S
O892        H909   0.990       .  S
O893        H913   0.990       .  S
O893        H922   0.989       .  S
O894        C895   1.279       .  A
C895       C3664   1.470       .  S
O896        H915   0.990       .  S
O896        H919   0.989       .  S
O897        H911   0.990       .  S
O897        H918   0.990       .  S
O898        C902   1.285       .  A
O899        C902   1.283       .  A
O900        H910   0.990       .  S
O901        H914   0.990       .  S
C902       C3024   1.497       .  S
Zr925       O926   2.437   1_556  S
Zr925       O927   2.414   1_556  S
Zr925       O928   2.449       .  S
Zr925       O931   2.423   1_556  S
Zr925       O933   2.372       .  S
Zr925       O934   2.387   1_545  S
Zr925       O935   2.396       .  S
Zr925       O936   2.399       .  S
O926        H982   0.991       .  S
O926        H990   0.990       .  S
O927        C947   1.279       .  A
O928        C949   1.286       .  A
O929       Zr939   2.426       .  S
O929        C948   1.285   1_566  A
O930       Zr938   2.415       .  S
O930        C949   1.280       .  A
O931        C948   1.283       .  A
O932       Zr940   2.441   1_554  S
O932        C947   1.285   1_565  A
O933       Zr938   2.385       .  S
O933       Zr940   2.375   1_545  S
O934       Zr939   2.395       .  S
O934       Zr940   2.369       .  S
O934        H969   0.965   1_556  S
O935       Zr938   2.390       .  S
O935       Zr955   2.398       .  S
O935        H972   0.968       .  S
O936       Zr939   2.396   1_545  S
O936       Zr955   2.388       .  S
Zr937       O962   2.444       .  S
Zr937       O956   2.466       .  S
Zr937       O964   2.444       .  S
Zr937       O952   2.430       .  S
Zr937       O943   2.407       .  S
Zr937       O944   2.419       .  S
Zr937       O945   2.380   1_565  S
Zr937       O946   2.377       .  S
Zr938       O957   2.436       .  S
Zr938       O950   2.436       .  S
Zr938       O951   2.399       .  S
Zr938       O944   2.396   1_545  S
Zr938       O945   2.397       .  S
Zr939       O941   2.435       .  S
Zr939       O963   2.440       .  S
Zr939       O965   2.438       .  S
Zr939       O943   2.388       .  S
Zr939       O946   2.396       .  S
Zr940       O966   2.434   1_556  S
Zr940       O967   2.435       .  S
Zr940       O942   2.437       .  S
Zr940       O943   2.401       .  S
Zr940       O944   2.399       .  S
O941        H978   0.990       .  S
O942        H973   0.990   1_556  S
O942        H987   0.990   1_565  S
O944        H970   0.966       .  S
O945       Zr955   2.376       .  S
O946       Zr955   2.387   1_565  S
O946        H971   0.967       .  S
C947       C2993   1.481       .  S
C948       C2853   1.473       .  S
C949       C2813   1.485       .  S
O950        H986   0.990       .  S
O951        C953   1.277       .  A
O952        C953   1.283   1_565  A
C953       C3064   1.453       .  S
O954       Zr955   2.436       .  S
O954        H983   0.990       .  S
Zr955       O958   2.437       .  S
Zr955       O959   2.438       .  S
Zr955       O960   2.413       .  S
O956        C961   1.289   1_565  A
O957        H974   0.990       .  S
O957        H989   0.990       .  S
O958        H975   0.990       .  S
O959        H979   0.990       .  S
O959        H988   0.990       .  S
O960        C961   1.279       .  A
C961       C2833   1.490       .  S
O962        H981   0.990       .  S
O962        H985   0.990       .  S
O963        H977   0.990       .  S
O963        H984   0.990   1_556  S
O964        C968   1.284       .  A
O965        C968   1.285       .  A
O966        H976   0.990       .  S
O967        H980   0.990       .  S
C968       C2873   1.487       .  S
Zr991       O992   2.440       .  S
Zr991       O993   2.434       .  S
Zr991       O994   2.440       .  S
Zr991       O997   2.429       .  S
Zr991       O999   2.377       .  S
Zr991      O1000   2.387       .  S
Zr991      O1001   2.407       .  S
Zr991      O1002   2.399       .  S
O992       H1048   0.990       .  S
O992       H1056   0.990       .  S
O993       C1013   1.283       .  A
O994       C1015   1.285       .  A
O995      Zr1005   2.411       .  S
O995       C1014   1.281       .  A
O996      Zr1004   2.424       .  S
O996       C1015   1.283       .  A
O997       C1014   1.284       .  A
O998      Zr1006   2.432       .  S
O998       C1013   1.285       .  A
O999      Zr1004   2.391       .  S
O999      Zr1006   2.370       .  S
O1000     Zr1005   2.394       .  S
O1000     Zr1006   2.370       .  S
O1000      H1035   0.967       .  S
O1001     Zr1004   2.391       .  S
O1001     Zr1021   2.400       .  S
O1001      H1038   0.969       .  S
O1002     Zr1005   2.398       .  S
O1002     Zr1021   2.389       .  S
Zr1003     O1028   2.441       .  S
Zr1003     O1022   2.458       .  S
Zr1003     O1030   2.430       .  S
Zr1003     O1018   2.427       .  S
Zr1003     O1009   2.409       .  S
Zr1003     O1010   2.414       .  S
Zr1003     O1011   2.380       .  S
Zr1003     O1012   2.377       .  S
Zr1004     O1023   2.434       .  S
Zr1004     O1016   2.436       .  S
Zr1004     O1017   2.420       .  S
Zr1004     O1010   2.395       .  S
Zr1004     O1011   2.393       .  S
Zr1005     O1007   2.434       .  S
Zr1005     O1029   2.436       .  S
Zr1005     O1031   2.442       .  S
Zr1005     O1009   2.388       .  S
Zr1005     O1012   2.389       .  S
Zr1006     O1032   2.436       .  S
Zr1006     O1033   2.435       .  S
Zr1006     O1008   2.436       .  S
Zr1006     O1009   2.404       .  S
Zr1006     O1010   2.391       .  S
O1007      H1044   0.990       .  S
O1008      H1039   0.990       .  S
O1008      H1053   0.990       .  S
O1010      H1036   0.965       .  S
O1011     Zr1021   2.380       .  S
O1012     Zr1021   2.389       .  S
O1012      H1037   0.967       .  S
C1013      C2944   1.496       .  S
C1014      C2793   1.459       .  S
C1015      C2764   1.477       .  S
O1016      H1052   0.990       .  S
O1017      C1019   1.281       .  A
O1018      C1019   1.282       .  A
C1019      C3673   1.460       .  S
O1020     Zr1021   2.442       .  S
O1020      H1049   0.990       .  S
Zr1021     O1024   2.440       .  S
Zr1021     O1025   2.435       .  S
Zr1021     O1026   2.419       .  S
O1022      C1027   1.287       .  A
O1023      H1040   0.990       .  S
O1023      H1055   0.990       .  S
O1024      H1041   0.991       .  S
O1025      H1045   0.990       .  S
O1025      H1054   0.990       .  S
O1026      C1027   1.281       .  A
C1027      C2773   1.487       .  S
O1028      H1047   0.990       .  S
O1028      H1051   0.991       .  S
O1029      H1043   0.990       .  S
O1029      H1050   0.990       .  S
O1030      C1034   1.283       .  A
O1031      C1034   1.285       .  A
O1032      H1042   0.990       .  S
O1033      H1046   0.990       .  S
C1034      C2884   1.489       .  S
Zr1057     O1058   2.444       .  S
Zr1057     O1059   2.455       .  S
Zr1057     O1060   2.441       .  S
Zr1057     O1063   2.427       .  S
Zr1057     O1065   2.377       .  S
Zr1057     O1066   2.387       .  S
Zr1057     O1067   2.416       .  S
Zr1057     O1068   2.408       .  S
O1058      H1114   0.991       .  S
O1058      H1122   0.990       .  S
O1059      C1079   1.287       .  A
O1060      C1081   1.283       .  A
O1061     Zr1071   2.396       .  S
O1061      C1080   1.278       .  A
O1062     Zr1070   2.434       .  S
O1062      C1081   1.283       .  A
O1063      C1080   1.282       .  A
O1064     Zr1072   2.415       .  S
O1064      C1079   1.280       .  A
O1065     Zr1070   2.393       .  S
O1065     Zr1072   2.386       .  S
O1066     Zr1071   2.393       .  S
O1066     Zr1072   2.375       .  S
O1066      H1101   0.967       .  S
O1067     Zr1070   2.396       .  S
O1067     Zr1087   2.392       .  S
O1067      H1104   0.965       .  S
O1068     Zr1071   2.390       .  S
O1068     Zr1087   2.393       .  S
Zr1069     O1094   2.438       .  S
Zr1069     O1088   2.427       .  S
Zr1069     O1096   2.455       .  S
Zr1069     O1084   2.427       .  S
Zr1069     O1075   2.398       .  S
Zr1069     O1076   2.407       .  S
Zr1069     O1077   2.382       .  S
Zr1069     O1078   2.379       .  S
Zr1070     O1089   2.437       .  S
Zr1070     O1082   2.434       .  S
Zr1070     O1083   2.419       .  S
Zr1070     O1076   2.397       .  S
Zr1070     O1077   2.391       .  S
Zr1071     O1073   2.436       .  S
Zr1071     O1095   2.438       .  S
Zr1071     O1097   2.416       .  S
Zr1071     O1075   2.382       .  S
Zr1071     O1078   2.387       .  S
Zr1072     O1098   2.435       .  S
Zr1072     O1099   2.436       .  S
Zr1072     O1074   2.435       .  S
Zr1072     O1075   2.395       .  S
Zr1072     O1076   2.385       .  S
O1073      H1110   0.990       .  S
O1074      H1105   0.990       .  S
O1074      H1119   0.990       .  S
O1076      H1102   0.967       .  S
O1077     Zr1087   2.372       .  S
O1078     Zr1087   2.372       .  S
O1078      H1103   0.966       .  S
C1079      C2784   1.490       .  S
C1080      C2704   1.458       .  S
C1081      C2733   1.468       .  S
O1082      H1118   0.990       .  S
O1083      C1085   1.284       .  A
O1084      C1085   1.283       .  A
C1085      C2924   1.480       .  S
O1086     Zr1087   2.438       .  S
O1086      H1115   0.990       .  S
Zr1087     O1090   2.436       .  S
Zr1087     O1091   2.438       .  S
Zr1087     O1092   2.429       .  S
O1088      C1093   1.284       .  A
O1089      H1106   0.991       .  S
O1089      H1121   0.990       .  S
O1090      H1107   0.990       .  S
O1091      H1111   0.990       .  S
O1091      H1120   0.990       .  S
O1092      C1093   1.281       .  A
C1093      C2713   1.496       .  S
O1094      H1113   0.990       .  S
O1094      H1117   0.989       .  S
O1095      H1109   0.990       .  S
O1095      H1116   0.990       .  S
O1096      C1100   1.286       .  A
O1097      C1100   1.282       .  A
O1098      H1108   0.990       .  S
O1099      H1112   0.990       .  S
C1100      C2673   1.481       .  S
Zr1123     O1124   2.444       .  S
Zr1123     O1125   2.445       .  S
Zr1123     O1126   2.448       .  S
Zr1123     O1129   2.423       .  S
Zr1123     O1131   2.373       .  S
Zr1123     O1132   2.387       .  S
Zr1123     O1133   2.407       .  S
Zr1123     O1134   2.407       .  S
O1124      H1180   0.990       .  S
O1124      H1188   0.991       .  S
O1125      C1145   1.285       .  A
O1126      C1147   1.284       .  A
O1127     Zr1137   2.412       .  S
O1127      C1146   1.281       .  A
O1128     Zr1136   2.427       .  S
O1128      C1147   1.283       .  A
O1129      C1146   1.282       .  A
O1130     Zr1138   2.417       .  S
O1130      C1145   1.280       .  A
O1131     Zr1136   2.396       .  S
O1131     Zr1138   2.383       .  S
O1132     Zr1137   2.394       .  S
O1132     Zr1138   2.374       .  S
O1132      H1167   0.966       .  S
O1133     Zr1136   2.396       .  S
O1133     Zr1153   2.393       .  S
O1133      H1170   0.963       .  S
O1134     Zr1137   2.394       .  S
O1134     Zr1153   2.388       .  S
Zr1135     O1160   2.441       .  S
Zr1135     O1154   2.443       .  S
Zr1135     O1162   2.437       .  S
Zr1135     O1150   2.429       .  S
Zr1135     O1141   2.406       .  S
Zr1135     O1142   2.404       .  S
Zr1135     O1143   2.380       .  S
Zr1135     O1144   2.379       .  S
Zr1136     O1155   2.436       .  S
Zr1136     O1148   2.435       .  S
Zr1136     O1149   2.419       .  S
Zr1136     O1142   2.395       .  S
Zr1136     O1143   2.392       .  S
Zr1137     O1139   2.436       .  S
Zr1137     O1161   2.436       .  S
Zr1137     O1163   2.431       .  S
Zr1137     O1141   2.390       .  S
Zr1137     O1144   2.388       .  S
Zr1138     O1164   2.437       .  S
Zr1138     O1165   2.435       .  S
Zr1138     O1140   2.436       .  S
Zr1138     O1141   2.399       .  S
Zr1138     O1142   2.387       .  S
O1139      H1176   0.991       .  S
O1140      H1171   0.990       .  S
O1140      H1185   0.991       .  S
O1142      H1168   0.967       .  S
O1143     Zr1153   2.377       .  S
O1144     Zr1153   2.373       .  S
O1144      H1169   0.966       .  S
C1145      C2624   1.486       .  S
C1146      C3584   1.469       .  S
C1147      C2744   1.480       .  S
O1148      H1184   0.991       .  S
O1149      C1151   1.283       .  A
O1150      C1151   1.284       .  A
C1151      C2644   1.465   1_554  S
O1152     Zr1153   2.438       .  S
O1152      H1181   0.990       .  S
Zr1153     O1156   2.436       .  S
Zr1153     O1157   2.439       .  S
Zr1153     O1158   2.423       .  S
O1154      C1159   1.287   1_554  A
O1155      H1172   0.990       .  S
O1155      H1187   0.990       .  S
O1156      H1173   0.990       .  S
O1157      H1177   0.990       .  S
O1157      H1186   0.990       .  S
O1158      C1159   1.281   1_554  A
C1159      C2664   1.492       .  S
O1160      H1179   0.991       .  S
O1160      H1183   0.990       .  S
O1161      H1175   0.990       .  S
O1161      H1182   0.990       .  S
O1162      C1166   1.283       .  A
O1163      C1166   1.283       .  A
O1164      H1174   0.990       .  S
O1165      H1178   0.990       .  S
C1166      C2604   1.471       .  S
Zr1189     O1190   2.441       .  S
Zr1189     O1191   2.437       .  S
Zr1189     O1192   2.441       .  S
Zr1189     O1195   2.412       .  S
Zr1189     O1197   2.371       .  S
Zr1189     O1198   2.386       .  S
Zr1189     O1199   2.402       .  S
Zr1189     O1200   2.405       .  S
O1190      H1246   0.990       .  S
O1190      H1254   0.990       .  S
O1191      C1211   1.284       .  A
O1192      C1213   1.285       .  A
O1193     Zr1203   2.408       .  S
O1193      C1212   1.280       .  A
O1194     Zr1202   2.435       .  S
O1194      C1213   1.283       .  A
O1195      C1212   1.282       .  A
O1196     Zr1204   2.412       .  S
O1196      C1211   1.280       .  A
O1197     Zr1202   2.385       .  S
O1197     Zr1204   2.384       .  S
O1198     Zr1203   2.389       .  S
O1198     Zr1204   2.375       .  S
O1198      H1233   0.967       .  S
O1199     Zr1202   2.388       .  S
O1199     Zr1219   2.394       .  S
O1199      H1236   0.964       .  S
O1200     Zr1203   2.388       .  S
O1200     Zr1219   2.391       .  S
Zr1201     O1226   2.448       .  S
Zr1201     O1220   2.432       .  S
Zr1201     O1228   2.447       .  S
Zr1201     O1216   2.425   1_655  S
Zr1201     O1207   2.398       .  S
Zr1201     O1208   2.407       .  S
Zr1201     O1209   2.388       .  S
Zr1201     O1210   2.377       .  S
Zr1202     O1221   2.437       .  S
Zr1202     O1214   2.435   1_655  S
Zr1202     O1215   2.400   1_655  S
Zr1202     O1208   2.402       .  S
Zr1202     O1209   2.396       .  S
Zr1203     O1205   2.436       .  S
Zr1203     O1227   2.436       .  S
Zr1203     O1229   2.415       .  S
Zr1203     O1207   2.385       .  S
Zr1203     O1210   2.380       .  S
Zr1204     O1230   2.435       .  S
Zr1204     O1231   2.436   1_655  S
Zr1204     O1206   2.436   1_655  S
Zr1204     O1207   2.396       .  S
Zr1204     O1208   2.383       .  S
O1205      H1242   0.990       .  S
O1206      H1237   0.990       .  S
O1206      H1251   0.990       .  S
O1208      H1234   0.967   1_655  S
O1209     Zr1219   2.374       .  S
O1210     Zr1219   2.371       .  S
O1210      H1235   0.966       .  S
C1211      C3564   1.472       .  S
C1212      C2553   1.468       .  S
C1213      C2573   1.488       .  S
O1214      H1250   0.990       .  S
O1215      C1217   1.281       .  A
O1216      C1217   1.283       .  A
C1217      C3393   1.466       .  S
O1218     Zr1219   2.438       .  S
O1218      H1247   0.990       .  S
Zr1219     O1222   2.436       .  S
Zr1219     O1223   2.440       .  S
Zr1219     O1224   2.427       .  S
O1220      C1225   1.284       .  A
O1221      H1238   0.991   1_655  S
O1221      H1253   0.990       .  S
O1222      H1239   0.990       .  S
O1223      H1243   0.990       .  S
O1223      H1252   0.990       .  S
O1224      C1225   1.284       .  A
C1225      C2653   1.484       .  S
O1226      H1245   0.990       .  S
O1226      H1249   0.990   1_655  S
O1227      H1241   0.991       .  S
O1227      H1248   0.990       .  S
O1228      C1232   1.285       .  A
O1229      C1232   1.281       .  A
O1230      H1240   0.990       .  S
O1231      H1244   0.990       .  S
C1232      C2533   1.469       .  S
Zr1255     O1256   2.442       .  S
Zr1255     O1257   2.439       .  S
Zr1255     O1258   2.449       .  S
Zr1255     O1261   2.428       .  S
Zr1255     O1263   2.380       .  S
Zr1255     O1264   2.387       .  S
Zr1255     O1265   2.408       .  S
Zr1255     O1266   2.402       .  S
O1256      H1312   0.990       .  S
O1256      H1320   0.990       .  S
O1257      C1277   1.283       .  A
O1258      C1279   1.286       .  A
O1259     Zr1269   2.411       .  S
O1259      C1278   1.280       .  A
O1260     Zr1268   2.439       .  S
O1260      C1279   1.285       .  A
O1261      C1278   1.284       .  A
O1262     Zr1270   2.414       .  S
O1262      C1277   1.281       .  A
O1263     Zr1268   2.392       .  S
O1263     Zr1270   2.384       .  S
O1264     Zr1269   2.388       .  S
O1264     Zr1270   2.375       .  S
O1264      H1299   0.967       .  S
O1265     Zr1268   2.397       .  S
O1265     Zr1285   2.389       .  S
O1265      H1302   0.963       .  S
O1266     Zr1269   2.390       .  S
O1266     Zr1285   2.393       .  S
Zr1267     O1292   2.442       .  S
Zr1267     O1286   2.436       .  S
Zr1267     O1294   2.452       .  S
Zr1267     O1282   2.451       .  S
Zr1267     O1273   2.401       .  S
Zr1267     O1274   2.413       .  S
Zr1267     O1275   2.385       .  S
Zr1267     O1276   2.382       .  S
Zr1268     O1287   2.433       .  S
Zr1268     O1280   2.435   1_655  S
Zr1268     O1281   2.405   1_655  S
Zr1268     O1274   2.406       .  S
Zr1268     O1275   2.396       .  S
Zr1269     O1271   2.436       .  S
Zr1269     O1293   2.436       .  S
Zr1269     O1295   2.408       .  S
Zr1269     O1273   2.387       .  S
Zr1269     O1276   2.388       .  S
Zr1270     O1296   2.435       .  S
Zr1270     O1297   2.436   1_655  S
Zr1270     O1272   2.436   1_655  S
Zr1270     O1273   2.392       .  S
Zr1270     O1274   2.384       .  S
O1271      H1308   0.991       .  S
O1272      H1303   0.990       .  S
O1272      H1317   0.989       .  S
O1274      H1300   0.967   1_655  S
O1275     Zr1285   2.377       .  S
O1276     Zr1285   2.372       .  S
O1276      H1301   0.966       .  S
C1277      C2493   1.489       .  S
C1278      C2804   1.474       .  S
C1279      C2584   1.485       .  S
O1280      H1316   0.990       .  S
O1281      C1283   1.280       .  A
O1282      C1283   1.286   1_655  A
C1283      C2524   1.466       .  S
O1284     Zr1285   2.439       .  S
O1284      H1313   0.991       .  S
Zr1285     O1288   2.438       .  S
Zr1285     O1289   2.440       .  S
Zr1285     O1290   2.419       .  S
O1286      C1291   1.283       .  A
O1287      H1304   0.990   1_655  S
O1287      H1319   0.989       .  S
O1288      H1305   0.990       .  S
O1289      H1309   0.990       .  S
O1289      H1318   0.990       .  S
O1290      C1291   1.282       .  A
C1291      C2724   1.492       .  S
O1292      H1311   0.990   1_655  S
O1292      H1315   0.990       .  S
O1293      H1307   0.990       .  S
O1293      H1314   0.990       .  S
O1294      C1298   1.287       .  A
O1295      C1298   1.282       .  A
O1296      H1306   0.990       .  S
O1297      H1310   0.990       .  S
C1298      C2473   1.490       .  S
Zr1321     O1322   2.440       .  S
Zr1321     O1323   2.432       .  S
Zr1321     O1324   2.454       .  S
Zr1321     O1327   2.430       .  S
Zr1321     O1329   2.378       .  S
Zr1321     O1330   2.391       .  S
Zr1321     O1331   2.406       .  S
Zr1321     O1332   2.402       .  S
O1322      H1378   0.991       .  S
O1322      H1386   0.990       .  S
O1323      C1343   1.284       .  A
O1324      C1345   1.286       .  A
O1325     Zr1335   2.403       .  S
O1325      C1344   1.280       .  A
O1326     Zr1334   2.403       .  S
O1326      C1345   1.278       .  A
O1327      C1344   1.284       .  A
O1328     Zr1336   2.428       .  S
O1328      C1343   1.281       .  A
O1329     Zr1334   2.392       .  S
O1329     Zr1336   2.371       .  S
O1330     Zr1335   2.395       .  S
O1330     Zr1336   2.373       .  S
O1330      H1365   0.965       .  S
O1331     Zr1334   2.393       .  S
O1331     Zr1351   2.397       .  S
O1331      H1368   0.968       .  S
O1332     Zr1335   2.396       .  S
O1332     Zr1351   2.386       .  S
Zr1333     O1358   2.443       .  S
Zr1333     O1352   2.450       .  S
Zr1333     O1360   2.444       .  S
Zr1333     O1348   2.441       .  S
Zr1333     O1339   2.402       .  S
Zr1333     O1340   2.419       .  S
Zr1333     O1341   2.383       .  S
Zr1333     O1342   2.383       .  S
Zr1334     O1353   2.436       .  S
Zr1334     O1346   2.434       .  S
Zr1334     O1347   2.407       .  S
Zr1334     O1340   2.399       .  S
Zr1334     O1341   2.388       .  S
Zr1335     O1337   2.436       .  S
Zr1335     O1359   2.439       .  S
Zr1335     O1361   2.440       .  S
Zr1335     O1339   2.378       .  S
Zr1335     O1342   2.388       .  S
Zr1336     O1362   2.435       .  S
Zr1336     O1363   2.434       .  S
Zr1336     O1338   2.437       .  S
Zr1336     O1339   2.397       .  S
Zr1336     O1340   2.394       .  S
O1337      H1374   0.990       .  S
O1338      H1369   0.990       .  S
O1338      H1383   0.990       .  S
O1340      H1366   0.965       .  S
O1341     Zr1351   2.381       .  S
O1342     Zr1351   2.395       .  S
O1342      H1367   0.967       .  S
C1343      C2444   1.498       .  S
C1344      C2564   1.462       .  S
C1345      C2904   1.473       .  S
O1346      H1382   0.990       .  S
O1347      C1349   1.279       .  A
O1348      C1349   1.284       .  A
C1349      C3784   1.469       .  S
O1350     Zr1351   2.441       .  S
O1350      H1379   0.990       .  S
Zr1351     O1354   2.439       .  S
Zr1351     O1355   2.439       .  S
Zr1351     O1356   2.412       .  S
O1352      C1357   1.286       .  A
O1353      H1370   0.990       .  S
O1353      H1385   0.990       .  S
O1354      H1371   0.990       .  S
O1355      H1375   0.990       .  S
O1355      H1384   0.990       .  S
O1356      C1357   1.280       .  A
C1357      C2613   1.482       .  S
O1358      H1377   0.990       .  S
O1358      H1381   0.991       .  S
O1359      H1373   0.990       .  S
O1359      H1380   0.990       .  S
O1360      C1364   1.286       .  A
O1361      C1364   1.285       .  A
O1362      H1372   0.990       .  S
O1363      H1376   0.990       .  S
C1364      C2464   1.485       .  S
Zr1387     O1388   2.439       .  S
Zr1387     O1389   2.418       .  S
Zr1387     O1390   2.447       .  S
Zr1387     O1393   2.429       .  S
Zr1387     O1395   2.381       .  S
Zr1387     O1396   2.388       .  S
Zr1387     O1397   2.400       .  S
Zr1387     O1398   2.397       .  S
O1388      H1444   0.990       .  S
O1388      H1452   0.990       .  S
O1389      C1409   1.282       .  A
O1390      C1411   1.285       .  A
O1391     Zr1401   2.417       .  S
O1391      C1410   1.283       .  A
O1392     Zr1400   2.414       .  S
O1392      C1411   1.283       .  A
O1393      C1410   1.284       .  A
O1394     Zr1402   2.430       .  S
O1394      C1409   1.283       .  A
O1395     Zr1400   2.387       .  S
O1395     Zr1402   2.373       .  S
O1396     Zr1401   2.395       .  S
O1396     Zr1402   2.369       .  S
O1396      H1431   0.966       .  S
O1397     Zr1400   2.396       .  S
O1397     Zr1417   2.392       .  S
O1397      H1434   0.967       .  S
O1398     Zr1401   2.396       .  S
O1398     Zr1417   2.385       .  S
Zr1399     O1424   2.442       .  S
Zr1399     O1418   2.443       .  S
Zr1399     O1426   2.433       .  S
Zr1399     O1414   2.427       .  S
Zr1399     O1405   2.403       .  S
Zr1399     O1406   2.407       .  S
Zr1399     O1407   2.380       .  S
Zr1399     O1408   2.379       .  S
Zr1400     O1419   2.436       .  S
Zr1400     O1412   2.436       .  S
Zr1400     O1413   2.422       .  S
Zr1400     O1406   2.393       .  S
Zr1400     O1407   2.390       .  S
Zr1401     O1403   2.435       .  S
Zr1401     O1425   2.438       .  S
Zr1401     O1427   2.446       .  S
Zr1401     O1405   2.388       .  S
Zr1401     O1408   2.390       .  S
Zr1402     O1428   2.434       .  S
Zr1402     O1429   2.435       .  S
Zr1402     O1404   2.435       .  S
Zr1402     O1405   2.396       .  S
Zr1402     O1406   2.390       .  S
O1403      H1440   0.990       .  S
O1404      H1435   0.990       .  S
O1404      H1449   0.990       .  S
O1406      H1432   0.966       .  S
O1407     Zr1417   2.381       .  S
O1408     Zr1417   2.387       .  S
O1408      H1433   0.965       .  S
C1409      C2413   1.480       .  S
C1410      C2393   1.477       .  S
C1411      C2964   1.497       .  S
O1412      H1448   0.990       .  S
O1413      C1415   1.282       .  A
O1414      C1415   1.283       .  A
C1415      C3124   1.469       .  S
O1416     Zr1417   2.439       .  S
O1416      H1445   0.990       .  S
Zr1417     O1420   2.436       .  S
Zr1417     O1421   2.440       .  S
Zr1417     O1422   2.403       .  S
O1418      C1423   1.285       .  A
O1419      H1436   0.990       .  S
O1419      H1451   0.990       .  S
O1420      H1437   0.990       .  S
O1421      H1441   0.990       .  S
O1421      H1450   0.990       .  S
O1422      C1423   1.279       .  A
C1423      C2373   1.476       .  S
O1424      H1443   0.990       .  S
O1424      H1447   0.991       .  S
O1425      H1439   0.990       .  S
O1425      H1446   0.990       .  S
O1426      C1430   1.283       .  A
O1427      C1430   1.286       .  A
O1428      H1438   0.990       .  S
O1429      H1442   0.990       .  S
C1430      C2453   1.495       .  S
Zr1453     O1454   2.440       .  S
Zr1453     O1455   2.443       .  S
Zr1453     O1456   2.456       .  S
Zr1453     O1459   2.434       .  S
Zr1453     O1461   2.377       .  S
Zr1453     O1462   2.387       .  S
Zr1453     O1463   2.407       .  S
Zr1453     O1464   2.401       .  S
O1454      H1510   0.990       .  S
O1454      H1518   0.990       .  S
O1455      C1475   1.286       .  A
O1456      C1477   1.286       .  A
O1457     Zr1467   2.397       .  S
O1457      C1476   1.279       .  A
O1458     Zr1466   2.413       .  S
O1458      C1477   1.282       .  A
O1459      C1476   1.284       .  A
O1460     Zr1468   2.437       .  S
O1460      C1475   1.283       .  A
O1461     Zr1466   2.396       .  S
O1461     Zr1468   2.378       .  S
O1462     Zr1467   2.399       .  S
O1462     Zr1468   2.368       .  S
O1462      H1497   0.966       .  S
O1463     Zr1466   2.393       .  S
O1463     Zr1483   2.400       .  S
O1463      H1500   0.966       .  S
O1464     Zr1467   2.396       .  S
O1464     Zr1483   2.391       .  S
Zr1465     O1490   2.442       .  S
Zr1465     O1484   2.461       .  S
Zr1465     O1492   2.438       .  S
Zr1465     O1480   2.430       .  S
Zr1465     O1471   2.410       .  S
Zr1465     O1472   2.416       .  S
Zr1465     O1473   2.382       .  S
Zr1465     O1474   2.373       .  S
Zr1466     O1485   2.435       .  S
Zr1466     O1478   2.434       .  S
Zr1466     O1479   2.409       .  S
Zr1466     O1472   2.398       .  S
Zr1466     O1473   2.393       .  S
Zr1467     O1469   2.435       .  S
Zr1467     O1491   2.438       .  S
Zr1467     O1493   2.433       .  S
Zr1467     O1471   2.386       .  S
Zr1467     O1474   2.385       .  S
Zr1468     O1494   2.434       .  S
Zr1468     O1495   2.437       .  S
Zr1468     O1470   2.439       .  S
Zr1468     O1471   2.406       .  S
Zr1468     O1472   2.389       .  S
O1469      H1506   0.990       .  S
O1470      H1501   0.990       .  S
O1470      H1515   0.990       .  S
O1472      H1498   0.962       .  S
O1473     Zr1483   2.378       .  S
O1474     Zr1483   2.385       .  S
O1474      H1499   0.966       .  S
C1475      C2433   1.498       .  S
C1476      C3964   1.470       .  S
C1477      C2753   1.487       .  S
O1478      H1514   0.990       .  S
O1479      C1481   1.280       .  A
O1480      C1481   1.283       .  A
C1481      C2633   1.458       .  S
O1482     Zr1483   2.440       .  S
O1482      H1511   0.991       .  S
Zr1483     O1486   2.437       .  S
Zr1483     O1487   2.439       .  S
Zr1483     O1488   2.413       .  S
O1484      C1489   1.287       .  A
O1485      H1502   0.991       .  S
O1485      H1517   0.990       .  S
O1486      H1503   0.990       .  S
O1487      H1507   0.990       .  S
O1487      H1516   0.990       .  S
O1488      C1489   1.281       .  A
C1489      C3733   1.493       .  S
O1490      H1509   0.991       .  S
O1490      H1513   0.990       .  S
O1491      H1505   0.990       .  S
O1491      H1512   0.990       .  S
O1492      C1496   1.284       .  A
O1493      C1496   1.284       .  A
O1494      H1504   0.990       .  S
O1495      H1508   0.990       .  S
C1496      C2353   1.489       .  S
Zr1519     O1520   2.440   1_556  S
Zr1519     O1521   2.426   1_556  S
Zr1519     O1522   2.461   1_556  S
Zr1519     O1525   2.431   1_556  S
Zr1519     O1527   2.376       .  S
Zr1519     O1528   2.392   1_556  S
Zr1519     O1529   2.402       .  S
Zr1519     O1530   2.406       .  S
O1520      H1576   0.990       .  S
O1520      H1584   0.990       .  S
O1521      C1541   1.284       .  A
O1522      C1543   1.287   1_554  A
O1523     Zr1533   2.422   1_554  S
O1523      C1542   1.284       .  A
O1524     Zr1532   2.407       .  S
O1524      C1543   1.281       .  A
O1525      C1542   1.284       .  A
O1526     Zr1534   2.420   1_554  S
O1526      C1541   1.279       .  A
O1527     Zr1532   2.388       .  S
O1527     Zr1534   2.381       .  S
O1528     Zr1533   2.395   1_554  S
O1528     Zr1534   2.370   1_554  S
O1528      H1563   0.968       .  S
O1529     Zr1532   2.388       .  S
O1529     Zr1549   2.399       .  S
O1529      H1566   0.967       .  S
O1530     Zr1533   2.396       .  S
O1530     Zr1549   2.389       .  S
Zr1531     O1556   2.444       .  S
Zr1531     O1550   2.447       .  S
Zr1531     O1558   2.439       .  S
Zr1531     O1546   2.444       .  S
Zr1531     O1537   2.405       .  S
Zr1531     O1538   2.417       .  S
Zr1531     O1539   2.378       .  S
Zr1531     O1540   2.385       .  S
Zr1532     O1551   2.437       .  S
Zr1532     O1544   2.433       .  S
Zr1532     O1545   2.397       .  S
Zr1532     O1538   2.396       .  S
Zr1532     O1539   2.388       .  S
Zr1533     O1535   2.434       .  S
Zr1533     O1557   2.435   1_556  S
Zr1533     O1559   2.446       .  S
Zr1533     O1537   2.386       .  S
Zr1533     O1540   2.392       .  S
Zr1534     O1560   2.435   1_556  S
Zr1534     O1561   2.437       .  S
Zr1534     O1536   2.439       .  S
Zr1534     O1537   2.392       .  S
Zr1534     O1538   2.390       .  S
O1535      H1572   0.990       .  S
O1536      H1567   0.990   1_556  S
O1536      H1581   0.990       .  S
O1538      H1564   0.964       .  S
O1539     Zr1549   2.380       .  S
O1540     Zr1549   2.386       .  S
O1540      H1565   0.967       .  S
C1541      C2424   1.492       .  S
C1542      C3244   1.465       .  S
C1543      C2824   1.491       .  S
O1544      H1580   0.990       .  S
O1545      C1547   1.280       .  A
O1546      C1547   1.285       .  A
C1547      C2333   1.481       .  S
O1548     Zr1549   2.440       .  S
O1548      H1577   0.990       .  S
Zr1549     O1552   2.439       .  S
Zr1549     O1553   2.437       .  S
Zr1549     O1554   2.418       .  S
O1550      C1555   1.284       .  A
O1551      H1568   0.990       .  S
O1551      H1583   0.990       .  S
O1552      H1569   0.990       .  S
O1553      H1573   0.990       .  S
O1553      H1582   0.989       .  S
O1554      C1555   1.281       .  A
C1555      C3104   1.476       .  S
O1556      H1575   0.990       .  S
O1556      H1579   0.990       .  S
O1557      H1571   0.990       .  S
O1557      H1578   0.990   1_554  S
O1558      C1562   1.282       .  A
O1559      C1562   1.286       .  A
O1560      H1570   0.990       .  S
O1561      H1574   0.990       .  S
C1562      C2364   1.482       .  S
Zr1585     O1586   2.442       .  S
Zr1585     O1587   2.427       .  S
Zr1585     O1588   2.435       .  S
Zr1585     O1591   2.426       .  S
Zr1585     O1593   2.375       .  S
Zr1585     O1594   2.382   1_545  S
Zr1585     O1595   2.401       .  S
Zr1585     O1596   2.397       .  S
O1586      H1642   0.991       .  S
O1586      H1650   0.991       .  S
O1587      C1607   1.282       .  A
O1588      C1609   1.283       .  A
O1589     Zr1599   2.418       .  S
O1589      C1608   1.282   1_565  A
O1590     Zr1598   2.412       .  S
O1590      C1609   1.281       .  A
O1591      C1608   1.285       .  A
O1592     Zr1600   2.443       .  S
O1592      C1607   1.286   1_565  A
O1593     Zr1598   2.389       .  S
O1593     Zr1600   2.372   1_545  S
O1594     Zr1599   2.392       .  S
O1594     Zr1600   2.370       .  S
O1594      H1629   0.966       .  S
O1595     Zr1598   2.393       .  S
O1595     Zr1615   2.394       .  S
O1595      H1632   0.968       .  S
O1596     Zr1599   2.391   1_545  S
O1596     Zr1615   2.387       .  S
Zr1597     O1622   2.443       .  S
Zr1597     O1616   2.465       .  S
Zr1597     O1624   2.436       .  S
Zr1597     O1612   2.412       .  S
Zr1597     O1603   2.403       .  S
Zr1597     O1604   2.416       .  S
Zr1597     O1605   2.377   1_565  S
Zr1597     O1606   2.375       .  S
Zr1598     O1617   2.435       .  S
Zr1598     O1610   2.435       .  S
Zr1598     O1611   2.414       .  S
Zr1598     O1604   2.391   1_545  S
Zr1598     O1605   2.390       .  S
Zr1599     O1601   2.433       .  S
Zr1599     O1623   2.436       .  S
Zr1599     O1625   2.424       .  S
Zr1599     O1603   2.386       .  S
Zr1599     O1606   2.394       .  S
Zr1600     O1626   2.435       .  S
Zr1600     O1627   2.435       .  S
Zr1600     O1602   2.437       .  S
Zr1600     O1603   2.401       .  S
Zr1600     O1604   2.394       .  S
O1601      H1638   0.990       .  S
O1602      H1633   0.990       .  S
O1602      H1647   0.990   1_565  S
O1604      H1630   0.966       .  S
O1605     Zr1615   2.377       .  S
O1606     Zr1615   2.385   1_565  S
O1606      H1631   0.965       .  S
C1607      C2293   1.493       .  S
C1608      C2273   1.475       .  S
C1609      C3304   1.470       .  S
O1610      H1646   0.990       .  S
O1611      C1613   1.281       .  A
O1612      C1613   1.279   1_565  A
C1613      C3193   1.454       .  S
O1614     Zr1615   2.437       .  S
O1614      H1643   0.990       .  S
Zr1615     O1618   2.438       .  S
Zr1615     O1619   2.439       .  S
Zr1615     O1620   2.409       .  S
O1616      C1621   1.288   1_565  A
O1617      H1634   0.990       .  S
O1617      H1649   0.990       .  S
O1618      H1635   0.990       .  S
O1619      H1639   0.990       .  S
O1619      H1648   0.990       .  S
O1620      C1621   1.280       .  A
C1621      C2253   1.501       .  S
O1622      H1641   0.990       .  S
O1622      H1645   0.991       .  S
O1623      H1637   0.990       .  S
O1623      H1644   0.989       .  S
O1624      C1628   1.284       .  A
O1625      C1628   1.282       .  A
O1626      H1636   0.990       .  S
O1627      H1640   0.990       .  S
C1628      C2313   1.483       .  S
Zr1651     O1652   2.439   1_556  S
Zr1651     O1653   2.433   1_556  S
Zr1651     O1654   2.463   1_556  S
Zr1651     O1657   2.432   1_556  S
Zr1651     O1659   2.375       .  S
Zr1651     O1660   2.391       .  S
Zr1651     O1661   2.403       .  S
Zr1651     O1662   2.405       .  S
O1652      H1708   0.990       .  S
O1652      H1716   0.990       .  S
O1653      C1673   1.283       .  A
O1654      C1675   1.288   1_554  A
O1655     Zr1665   2.394   1_554  S
O1655      C1674   1.278       .  A
O1656     Zr1664   2.411       .  S
O1656      C1675   1.280       .  A
O1657      C1674   1.286       .  A
O1658     Zr1666   2.434   1_554  S
O1658      C1673   1.284       .  A
O1659     Zr1664   2.393       .  S
O1659     Zr1666   2.374       .  S
O1660     Zr1665   2.399       .  S
O1660     Zr1666   2.368       .  S
O1660      H1695   0.965   1_556  S
O1661     Zr1664   2.389       .  S
O1661     Zr1681   2.402       .  S
O1661      H1698   0.968       .  S
O1662     Zr1665   2.398       .  S
O1662     Zr1681   2.388       .  S
Zr1663     O1688   2.441       .  S
Zr1663     O1682   2.439       .  S
Zr1663     O1690   2.427       .  S
Zr1663     O1678   2.404       .  S
Zr1663     O1669   2.401       .  S
Zr1663     O1670   2.409       .  S
Zr1663     O1671   2.379       .  S
Zr1663     O1672   2.370       .  S
Zr1664     O1683   2.433       .  S
Zr1664     O1676   2.435       .  S
Zr1664     O1677   2.412       .  S
Zr1664     O1670   2.396       .  S
Zr1664     O1671   2.387       .  S
Zr1665     O1667   2.436       .  S
Zr1665     O1689   2.437       .  S
Zr1665     O1691   2.435       .  S
Zr1665     O1669   2.383       .  S
Zr1665     O1672   2.385       .  S
Zr1666     O1692   2.437   1_556  S
Zr1666     O1693   2.435       .  S
Zr1666     O1668   2.437       .  S
Zr1666     O1669   2.404       .  S
Zr1666     O1670   2.387       .  S
O1667      H1704   0.990       .  S
O1668      H1699   0.990       .  S
O1668      H1713   0.990       .  S
O1670      H1696   0.965       .  S
O1671     Zr1681   2.380       .  S
O1672     Zr1681   2.387       .  S
O1672      H1697   0.966       .  S
C1673      C2233   1.484       .  S
C1674      C2693   1.466       .  S
C1675      C3384   1.482   1_556  S
O1676      H1712   0.990       .  S
O1677      C1679   1.280       .  A
O1678      C1679   1.279       .  A
C1679      C3884   1.456       .  S
O1680     Zr1681   2.439       .  S
O1680      H1709   0.990       .  S
Zr1681     O1684   2.437       .  S
Zr1681     O1685   2.442       .  S
Zr1681     O1686   2.416       .  S
O1682      C1687   1.283       .  A
O1683      H1700   0.990       .  S
O1683      H1715   0.990       .  S
O1684      H1701   0.990       .  S
O1685      H1705   0.990       .  S
O1685      H1714   0.990       .  S
O1686      C1687   1.281       .  A
C1687      C2504   1.482       .  S
O1688      H1707   0.990       .  S
O1688      H1711   0.990       .  S
O1689      H1703   0.990       .  S
O1689      H1710   0.989   1_556  S
O1690      C1694   1.281       .  A
O1691      C1694   1.284       .  A
O1692      H1702   0.990       .  S
O1693      H1706   0.990       .  S
C1694      C2324   1.482       .  S
Zr1717     O1718   2.438       .  S
Zr1717     O1719   2.429       .  S
Zr1717     O1720   2.451       .  S
Zr1717     O1723   2.434       .  S
Zr1717     O1725   2.377       .  S
Zr1717     O1726   2.387   1_545  S
Zr1717     O1727   2.400       .  S
Zr1717     O1728   2.399       .  S
O1718      H1774   0.990       .  S
O1718      H1782   0.990       .  S
O1719      C1739   1.282       .  A
O1720      C1741   1.287       .  A
O1721     Zr1731   2.409       .  S
O1721      C1740   1.281   1_565  A
O1722     Zr1730   2.413       .  S
O1722      C1741   1.280       .  A
O1723      C1740   1.285       .  A
O1724     Zr1732   2.432       .  S
O1724      C1739   1.284   1_565  A
O1725     Zr1730   2.388       .  S
O1725     Zr1732   2.372   1_545  S
O1726     Zr1731   2.398       .  S
O1726     Zr1732   2.373       .  S
O1726      H1761   0.965       .  S
O1727     Zr1730   2.394       .  S
O1727     Zr1747   2.394       .  S
O1727      H1764   0.967       .  S
O1728     Zr1731   2.394   1_545  S
O1728     Zr1747   2.385       .  S
Zr1729     O1754   2.444       .  S
Zr1729     O1748   2.460       .  S
Zr1729     O1756   2.434       .  S
Zr1729     O1744   2.429       .  S
Zr1729     O1735   2.402       .  S
Zr1729     O1736   2.418       .  S
Zr1729     O1737   2.382   1_565  S
Zr1729     O1738   2.377       .  S
Zr1730     O1749   2.436       .  S
Zr1730     O1742   2.434       .  S
Zr1730     O1743   2.408       .  S
Zr1730     O1736   2.397   1_545  S
Zr1730     O1737   2.394       .  S
Zr1731     O1733   2.435       .  S
Zr1731     O1755   2.439       .  S
Zr1731     O1757   2.434       .  S
Zr1731     O1735   2.382       .  S
Zr1731     O1738   2.389       .  S
Zr1732     O1758   2.436       .  S
Zr1732     O1759   2.436       .  S
Zr1732     O1734   2.437       .  S
Zr1732     O1735   2.396       .  S
Zr1732     O1736   2.397       .  S
O1733      H1770   0.990       .  S
O1734      H1765   0.990       .  S
O1734      H1779   0.990   1_565  S
O1736      H1762   0.966       .  S
O1737     Zr1747   2.380       .  S
O1738     Zr1747   2.388   1_565  S
O1738      H1763   0.966       .  S
C1739      C2304   1.480       .  S
C1740      C3073   1.465       .  S
C1741      C3444   1.479       .  S
O1742      H1778   0.990       .  S
O1743      C1745   1.279       .  A
O1744      C1745   1.280   1_565  A
C1745      C2193   1.453       .  S
O1746     Zr1747   2.440       .  S
O1746      H1775   0.990       .  S
Zr1747     O1750   2.438       .  S
Zr1747     O1751   2.440       .  S
Zr1747     O1752   2.405       .  S
O1748      C1753   1.287   1_565  A
O1749      H1766   0.990       .  S
O1749      H1781   0.990       .  S
O1750      H1767   0.990       .  S
O1751      H1771   0.990       .  S
O1751      H1780   0.989       .  S
O1752      C1753   1.279       .  A
C1753      C3164   1.489       .  S
O1754      H1773   0.991       .  S
O1754      H1777   0.991       .  S
O1755      H1769   0.990       .  S
O1755      H1776   0.990       .  S
O1756      C1760   1.285       .  A
O1757      C1760   1.284       .  A
O1758      H1768   0.990       .  S
O1759      H1772   0.990       .  S
C1760      C2224   1.484       .  S
Zr1783     O1784   2.442       .  S
Zr1783     O1785   2.427       .  S
Zr1783     O1786   2.457       .  S
Zr1783     O1789   2.421       .  S
Zr1783     O1791   2.379       .  S
Zr1783     O1792   2.388       .  S
Zr1783     O1793   2.397       .  S
Zr1783     O1794   2.404       .  S
O1784      H1840   0.990       .  S
O1784      H1848   0.991       .  S
O1785      C1805   1.283       .  A
O1786      C1807   1.287       .  A
O1787     Zr1797   2.425       .  S
O1787      C1806   1.284       .  A
O1788     Zr1796   2.406       .  S
O1788      C1807   1.280       .  A
O1789      C1806   1.284       .  A
O1790     Zr1798   2.434       .  S
O1790      C1805   1.283       .  A
O1791     Zr1796   2.392       .  S
O1791     Zr1798   2.378       .  S
O1792     Zr1797   2.391       .  S
O1792     Zr1798   2.365       .  S
O1792      H1827   0.967       .  S
O1793     Zr1796   2.390       .  S
O1793     Zr1813   2.392       .  S
O1793      H1830   0.963       .  S
O1794     Zr1797   2.395       .  S
O1794     Zr1813   2.387       .  S
Zr1795     O1820   2.440       .  S
Zr1795     O1814   2.457       .  S
Zr1795     O1822   2.434       .  S
Zr1795     O1810   2.436       .  S
Zr1795     O1801   2.413       .  S
Zr1795     O1802   2.409       .  S
Zr1795     O1803   2.376       .  S
Zr1795     O1804   2.378       .  S
Zr1796     O1815   2.435       .  S
Zr1796     O1808   2.435       .  S
Zr1796     O1809   2.408       .  S
Zr1796     O1802   2.391       .  S
Zr1796     O1803   2.389       .  S
Zr1797     O1799   2.435       .  S
Zr1797     O1821   2.435       .  S
Zr1797     O1823   2.448       .  S
Zr1797     O1801   2.394       .  S
Zr1797     O1804   2.389       .  S
Zr1798     O1824   2.435       .  S
Zr1798     O1825   2.434       .  S
Zr1798     O1800   2.436       .  S
Zr1798     O1801   2.407       .  S
Zr1798     O1802   2.389       .  S
O1799      H1836   0.990       .  S
O1800      H1831   0.990       .  S
O1800      H1845   0.989       .  S
O1802      H1828   0.966       .  S
O1803     Zr1813   2.384       .  S
O1804     Zr1813   2.381       .  S
O1804      H1829   0.965       .  S
C1805      C2244   1.479       .  S
C1806      C3704   1.470       .  S
C1807      C3544   1.471       .  S
O1808      H1844   0.990       .  S
O1809      C1811   1.279       .  A
O1810      C1811   1.286       .  A
C1811      C2513   1.478       .  S
O1812     Zr1813   2.438       .  S
O1812      H1841   0.990       .  S
Zr1813     O1816   2.438       .  S
Zr1813     O1817   2.441       .  S
Zr1813     O1818   2.405       .  S
O1814      C1819   1.288       .  A
O1815      H1832   0.990       .  S
O1815      H1847   0.990       .  S
O1816      H1833   0.989       .  S
O1817      H1837   0.990       .  S
O1817      H1846   0.990       .  S
O1818      C1819   1.278       .  A
C1819      C3833   1.478       .  S
O1820      H1839   0.990       .  S
O1820      H1843   0.990       .  S
O1821      H1835   0.990       .  S
O1821      H1842   0.990       .  S
O1822      C1826   1.283       .  A
O1823      C1826   1.288       .  A
O1824      H1834   0.990       .  S
O1825      H1838   0.990       .  S
C1826      C2213   1.493       .  S
Zr1849     O1850   2.442       .  S
Zr1849     O1851   2.450       .  S
Zr1849     O1852   2.441       .  S
Zr1849     O1855   2.427       .  S
Zr1849     O1857   2.371       .  S
Zr1849     O1858   2.383       .  S
Zr1849     O1859   2.408       .  S
Zr1849     O1860   2.407       .  S
O1850      H1906   0.990       .  S
O1850      H1914   0.990       .  S
O1851      C1871   1.286       .  A
O1852      C1873   1.283       .  A
O1853     Zr1863   2.423       .  S
O1853      C1872   1.283       .  A
O1854     Zr1862   2.432       .  S
O1854      C1873   1.283       .  A
O1855      C1872   1.282       .  A
O1856     Zr1864   2.402       .  S
O1856      C1871   1.277       .  A
O1857     Zr1862   2.391       .  S
O1857     Zr1864   2.386       .  S
O1858     Zr1863   2.391       .  S
O1858     Zr1864   2.381       .  S
O1858      H1893   0.967       .  S
O1859     Zr1862   2.390       .  S
O1859     Zr1879   2.403       .  S
O1859      H1896   0.963       .  S
O1860     Zr1863   2.386       .  S
O1860     Zr1879   2.395       .  S
Zr1861     O1886   2.442       .  S
Zr1861     O1880   2.431       .  S
Zr1861     O1888   2.430       .  S
Zr1861     O1876   2.434       .  S
Zr1861     O1867   2.402       .  S
Zr1861     O1868   2.401       .  S
Zr1861     O1869   2.380       .  S
Zr1861     O1870   2.381       .  S
Zr1862     O1881   2.437       .  S
Zr1862     O1874   2.434       .  S
Zr1862     O1875   2.402       .  S
Zr1862     O1868   2.402       .  S
Zr1862     O1869   2.394       .  S
Zr1863     O1865   2.437       .  S
Zr1863     O1887   2.435       .  S
Zr1863     O1889   2.422       .  S
Zr1863     O1867   2.386       .  S
Zr1863     O1870   2.394       .  S
Zr1864     O1890   2.435       .  S
Zr1864     O1891   2.436       .  S
Zr1864     O1866   2.437       .  S
Zr1864     O1867   2.389       .  S
Zr1864     O1868   2.382       .  S
O1865      H1902   0.991       .  S
O1866      H1897   0.990       .  S
O1866      H1911   0.989       .  S
O1868      H1894   0.966       .  S
O1869     Zr1879   2.370       .  S
O1870     Zr1879   2.372       .  S
O1870      H1895   0.966       .  S
C1871      C2384   1.482       .  S
C1872      C3484   1.471       .  S
C1873      C2184   1.482       .  S
O1874      H1910   0.990       .  S
O1875      C1877   1.281       .  A
O1876      C1877   1.284       .  A
C1877      C2344   1.464       .  S
O1878     Zr1879   2.437       .  S
O1878      H1907   0.990       .  S
Zr1879     O1882   2.437       .  S
Zr1879     O1883   2.439       .  S
Zr1879     O1884   2.439       .  S
O1880      C1885   1.282       .  A
O1881      H1898   0.990       .  S
O1881      H1913   0.990       .  S
O1882      H1899   0.990       .  S
O1883      H1903   0.990       .  S
O1883      H1912   0.990       .  S
O1884      C1885   1.286       .  A
C1885      C2153   1.500       .  S
O1886      H1905   0.991       .  S
O1886      H1909   0.990       .  S
O1887      H1901   0.990       .  S
O1887      H1908   0.990       .  S
O1888      C1892   1.284       .  A
O1889      C1892   1.283       .  A
O1890      H1900   0.990       .  S
O1891      H1904   0.990       .  S
C1892      C2544   1.470       .  S
Zr1915     O1916   2.442       .  S
Zr1915     O1917   2.466       .  S
Zr1915     O1918   2.432       .  S
Zr1915     O1921   2.443       .  S
Zr1915     O1923   2.381       .  S
Zr1915     O1924   2.381   1_545  S
Zr1915     O1925   2.423       .  S
Zr1915     O1926   2.405       .  S
O1916      H1972   0.990       .  S
O1916      H1980   0.990       .  S
O1917      C1937   1.288       .  A
O1918      C1939   1.282       .  A
O1919     Zr1929   2.410       .  S
O1919      C1938   1.280   1_565  A
O1920     Zr1928   2.453       .  S
O1920      C1939   1.287       .  A
O1921      C1938   1.284       .  A
O1922     Zr1930   2.413       .  S
O1922      C1937   1.281   1_565  A
O1923     Zr1928   2.398       .  S
O1923     Zr1930   2.386   1_545  S
O1924     Zr1929   2.392       .  S
O1924     Zr1930   2.379       .  S
O1924      H1959   0.967       .  S
O1925     Zr1928   2.395       .  S
O1925     Zr1945   2.402       .  S
O1925      H1962   0.966       .  S
O1926     Zr1929   2.385   1_545  S
O1926     Zr1945   2.396       .  S
Zr1927     O1952   2.436       .  S
Zr1927     O1946   2.443       .  S
Zr1927     O1954   2.454       .  S
Zr1927     O1942   2.427       .  S
Zr1927     O1933   2.405       .  S
Zr1927     O1934   2.412       .  S
Zr1927     O1935   2.389   1_565  S
Zr1927     O1936   2.377       .  S
Zr1928     O1947   2.434       .  S
Zr1928     O1940   2.437       .  S
Zr1928     O1941   2.429       .  S
Zr1928     O1934   2.404   1_545  S
Zr1928     O1935   2.399       .  S
Zr1929     O1931   2.436       .  S
Zr1929     O1953   2.436       .  S
Zr1929     O1955   2.409       .  S
Zr1929     O1933   2.386       .  S
Zr1929     O1936   2.393       .  S
Zr1930     O1956   2.435       .  S
Zr1930     O1957   2.435       .  S
Zr1930     O1932   2.438       .  S
Zr1930     O1933   2.398       .  S
Zr1930     O1934   2.381       .  S
O1931      H1968   0.990       .  S
O1932      H1963   0.990       .  S
O1932      H1977   0.990   1_565  S
O1934      H1960   0.966       .  S
O1935     Zr1945   2.374       .  S
O1936     Zr1945   2.372   1_565  S
O1936      H1961   0.966       .  S
C1937      C2844   1.496       .  S
C1938      C2284   1.472       .  S
C1939      C2173   1.483       .  S
O1940      H1976   0.990       .  S
O1941      C1943   1.285       .  A
O1942      C1943   1.284   1_565  A
C1943      C2984   1.465       .  S
O1944     Zr1945   2.439       .  S
O1944      H1973   0.991       .  S
Zr1945     O1948   2.435       .  S
Zr1945     O1949   2.440       .  S
Zr1945     O1950   2.442       .  S
O1946      C1951   1.286   1_565  A
O1947      H1964   0.990       .  S
O1947      H1979   0.990       .  S
O1948      H1965   0.990       .  S
O1949      H1969   0.990       .  S
O1949      H1978   0.990       .  S
O1950      C1951   1.285       .  A
C1951      C2133   1.494       .  S
O1952      H1971   0.990       .  S
O1952      H1975   0.989       .  S
O1953      H1967   0.990       .  S
O1953      H1974   0.990       .  S
O1954      C1958   1.287       .  A
O1955      C1958   1.281       .  A
O1956      H1966   0.990       .  S
O1957      H1970   0.990       .  S
C1958      C2484   1.488       .  S
Zr1981     O1982   2.441       .  S
Zr1981     O1983   2.449       .  S
Zr1981     O1984   2.443       .  S
Zr1981     O1987   2.435       .  S
Zr1981     O1989   2.380       .  S
Zr1981     O1990   2.383       .  S
Zr1981     O1991   2.411       .  S
Zr1981     O1992   2.405       .  S
O1982      H2038   0.990       .  S
O1982      H2046   0.991       .  S
O1983      C2003   1.285       .  A
O1984      C2005   1.286       .  A
O1985     Zr1995   2.419       .  S
O1985      C2004   1.282       .  A
O1986     Zr1994   2.435       .  S
O1986      C2005   1.283       .  A
O1987      C2004   1.285       .  A
O1988     Zr1996   2.420       .  S
O1988      C2003   1.281       .  A
O1989     Zr1994   2.400       .  S
O1989     Zr1996   2.382       .  S
O1990     Zr1995   2.391       .  S
O1990     Zr1996   2.371       .  S
O1990      H2025   0.967       .  S
O1991     Zr1994   2.395       .  S
O1991     Zr2011   2.398       .  S
O1991      H2028   0.964       .  S
O1992     Zr1995   2.390       .  S
O1992     Zr2011   2.394       .  S
Zr1993     O2018   2.441       .  S
Zr1993     O2012   2.445   1_554  S
Zr1993     O2020   2.446       .  S
Zr1993     O2008   2.438   1_655  S
Zr1993     O1999   2.410       .  S
Zr1993     O2000   2.412       .  S
Zr1993     O2001   2.384       .  S
Zr1993     O2002   2.381       .  S
Zr1994     O2013   2.432       .  S
Zr1994     O2006   2.435   1_655  S
Zr1994     O2007   2.424   1_655  S
Zr1994     O2000   2.401       .  S
Zr1994     O2001   2.392       .  S
Zr1995     O1997   2.436       .  S
Zr1995     O2019   2.435       .  S
Zr1995     O2021   2.417       .  S
Zr1995     O1999   2.392       .  S
Zr1995     O2002   2.392       .  S
Zr1996     O2022   2.436       .  S
Zr1996     O2023   2.435   1_655  S
Zr1996     O1998   2.435   1_655  S
Zr1996     O1999   2.401       .  S
Zr1996     O2000   2.383       .  S
O1997      H2034   0.990       .  S
O1998      H2029   0.991       .  S
O1998      H2043   0.990       .  S
O2000      H2026   0.966   1_655  S
O2001     Zr2011   2.380       .  S
O2002     Zr2011   2.375       .  S
O2002      H2027   0.967       .  S
C2003      C3464   1.495   1_655  S
C2004      C2404   1.482       .  S
C2005      C2124   1.492       .  S
O2006      H2042   0.990       .  S
O2007      C2009   1.284       .  A
O2008      C2009   1.284       .  A
C2009      C3333   1.464   1_554  S
O2010     Zr2011   2.438       .  S
O2010      H2039   0.990       .  S
Zr2011     O2014   2.437       .  S
Zr2011     O2015   2.439       .  S
Zr2011     O2016   2.429       .  S
O2012      C2017   1.287       .  A
O2013      H2030   0.990   1_655  S
O2013      H2045   0.989       .  S
O2014      H2031   0.990       .  S
O2015      H2035   0.990       .  S
O2015      H2044   0.990       .  S
O2016      C2017   1.281   1_554  A
C2017      C2164   1.502       .  S
O2018      H2037   0.991   1_554  S
O2018      H2041   0.990       .  S
O2019      H2033   0.990       .  S
O2019      H2040   0.990       .  S
O2020      C2024   1.285       .  A
O2021      C2024   1.282       .  A
O2022      H2032   0.990       .  S
O2023      H2036   0.990       .  S
C2024      C2593   1.473       .  S
Zr2047     O2048   2.442       .  S
Zr2047     O2049   2.453       .  S
Zr2047     O2050   2.436       .  S
Zr2047     O2053   2.428       .  S
Zr2047     O2055   2.376       .  S
Zr2047     O2056   2.384   1_545  S
Zr2047     O2057   2.415       .  S
Zr2047     O2058   2.407       .  S
O2048      H2104   0.990       .  S
O2048      H2112   0.991       .  S
O2049      C2069   1.285       .  A
O2050      C2071   1.284       .  A
O2051     Zr2061   2.419       .  S
O2051      C2070   1.281   1_565  A
O2052     Zr2060   2.431       .  S
O2052      C2071   1.282       .  A
O2053      C2070   1.282       .  A
O2054     Zr2062   2.412   1_455  S
O2054      C2069   1.278   1_465  A
O2055     Zr2060   2.393       .  S
O2055     Zr2062   2.387   1_545  S
O2056     Zr2061   2.392       .  S
O2056     Zr2062   2.382       .  S
O2056      H2091   0.966       .  S
O2057     Zr2060   2.396       .  S
O2057     Zr2077   2.403       .  S
O2057      H2094   0.965       .  S
O2058     Zr2061   2.384   1_545  S
O2058     Zr2077   2.394       .  S
Zr2059     O2084   2.447       .  S
Zr2059     O2078   2.442       .  S
Zr2059     O2086   2.435       .  S
Zr2059     O2074   2.432   1_655  S
Zr2059     O2065   2.402       .  S
Zr2059     O2066   2.406       .  S
Zr2059     O2067   2.379   1_565  S
Zr2059     O2068   2.381       .  S
Zr2060     O2079   2.436       .  S
Zr2060     O2072   2.435   1_655  S
Zr2060     O2073   2.414   1_655  S
Zr2060     O2066   2.398   1_545  S
Zr2060     O2067   2.392       .  S
Zr2061     O2063   2.436       .  S
Zr2061     O2085   2.437       .  S
Zr2061     O2087   2.413       .  S
Zr2061     O2065   2.389       .  S
Zr2061     O2068   2.394       .  S
Zr2062     O2088   2.434       .  S
Zr2062     O2089   2.436   1_655  S
Zr2062     O2064   2.438   1_655  S
Zr2062     O2065   2.394       .  S
Zr2062     O2066   2.391       .  S
O2063      H2100   0.990       .  S
O2064      H2095   0.990       .  S
O2064      H2109   0.990   1_565  S
O2066      H2092   0.966   1_655  S
O2067     Zr2077   2.369       .  S
O2068     Zr2077   2.369   1_565  S
O2068      H2093   0.966       .  S
C2069      C2264   1.472   1_655  S
C2070      C2864   1.466       .  S
C2071      C2113   1.490       .  S
O2072      H2108   0.990       .  S
O2073      C2075   1.282       .  A
O2074      C2075   1.285   1_565  A
C2075      C2204   1.467       .  S
O2076     Zr2077   2.438       .  S
O2076      H2105   0.990       .  S
Zr2077     O2080   2.435       .  S
Zr2077     O2081   2.441       .  S
Zr2077     O2082   2.447       .  S
O2078      C2083   1.285       .  A
O2079      H2096   0.990   1_655  S
O2079      H2111   0.990       .  S
O2080      H2097   0.990       .  S
O2081      H2101   0.990       .  S
O2081      H2110   0.990       .  S
O2082      C2083   1.288   1_545  A
C2083      C2144   1.504       .  S
O2084      H2103   0.990       .  S
O2084      H2107   0.990   1_655  S
O2085      H2099   0.990       .  S
O2085      H2106   0.990       .  S
O2086      C2090   1.283       .  A
O2087      C2090   1.282       .  A
O2088      H2098   0.990   1_655  S
O2089      H2102   0.990       .  S
C2090      C2684   1.488       .  S
C2113      C2114   1.419   1_655  A
C2113      C2118   1.409       .  A
C2114      C2115   1.404       .  A
C2114     Br2130   1.921       .  S
C2115      C2116   1.401   1_455  A
C2115      H2119   1.083       .  S
C2116      C2120   1.478       .  S
C2116      C2117   1.404       .  A
C2117      C2118   1.395       .  A
C2117     Br2129   1.920       .  S
C2118      H2121   1.083       .  S
C2120      C2122   1.399   1_655  A
C2120      C2126   1.404       .  A
C2122      C2123   1.400       .  A
C2122      H2127   1.084       .  S
C2123      C2124   1.419   1_455  A
C2123     Br2131   1.918       .  S
C2124      C2125   1.409       .  A
C2125      C2126   1.399       .  A
C2125      H2128   1.082       .  S
C2126     Br2132   1.917       .  S
C2133      C2134   1.414       .  A
C2133      C2138   1.408   1_545  A
C2134      C2135   1.403       .  A
C2134     Br2150   1.919       .  S
C2135      C2136   1.404   1_545  A
C2135      H2139   1.083       .  S
C2136      C2140   1.496       .  S
C2136      C2137   1.412       .  A
C2137      C2138   1.407       .  A
C2137     Br2149   1.919       .  S
C2138      H2141   1.084       .  S
C2140      C2142   1.404       .  A
C2140      C2146   1.410   1_565  A
C2142      C2143   1.407       .  A
C2142      H2147   1.083       .  S
C2143      C2144   1.422       .  A
C2143     Br2151   1.922       .  S
C2144      C2145   1.410   1_565  A
C2145      C2146   1.402       .  A
C2145      H2148   1.083       .  S
C2146     Br2152   1.920       .  S
C2153      C2154   1.423       .  A
C2153      C2158   1.412       .  A
C2154      C2155   1.402       .  A
C2154     Br2170   1.923       .  S
C2155      C2156   1.400       .  A
C2155      H2159   1.084       .  S
C2156      C2160   1.485       .  S
C2156      C2157   1.405       .  A
C2157      C2158   1.401       .  A
C2157     Br2169   1.919       .  S
C2158      H2161   1.083       .  S
C2160      C2162   1.400       .  A
C2160      C2166   1.406       .  A
C2162      C2163   1.402       .  A
C2162      H2167   1.084       .  S
C2163      C2164   1.424       .  A
C2163     Br2171   1.923       .  S
C2164      C2165   1.412       .  A
C2165      C2166   1.402       .  A
C2165      H2168   1.083       .  S
C2166     Br2172   1.919       .  S
C2173      C2174   1.414       .  A
C2173      C2178   1.406       .  A
C2174      C2175   1.398       .  A
C2174     Br2190   1.920       .  S
C2175      C2176   1.400       .  A
C2175      H2179   1.084       .  S
C2176      C2180   1.481       .  S
C2176      C2177   1.408       .  A
C2177      C2178   1.405       .  A
C2177     Br2189   1.916       .  S
C2178      H2181   1.083       .  S
C2180      C2182   1.402       .  A
C2180      C2186   1.407       .  A
C2182      C2183   1.402       .  A
C2182      H2187   1.083       .  S
C2183      C2184   1.413       .  A
C2183     Br2191   1.921       .  S
C2184      C2185   1.406       .  A
C2185      C2186   1.401       .  A
C2185      H2188   1.084       .  S
C2186     Br2192   1.918       .  S
C2193      C2194   1.406   1_545  A
C2193      C2198   1.398       .  A
C2194      C2195   1.393       .  A
C2194     Br2210   1.919       .  S
C2195      C2196   1.399   1_565  A
C2195      H2199   1.084       .  S
C2196      C2200   1.464       .  S
C2196      C2197   1.408       .  A
C2197      C2198   1.395       .  A
C2197     Br2209   1.918       .  S
C2198      H2201   1.084       .  S
C2200      C2202   1.400       .  A
C2200      C2206   1.403   1_545  A
C2202      C2203   1.395       .  A
C2202      H2207   1.084       .  S
C2203      C2204   1.411       .  A
C2203     Br2211   1.919       .  S
C2204      C2205   1.404   1_545  A
C2205      C2206   1.394       .  A
C2205      H2208   1.083       .  S
C2206     Br2212   1.919       .  S
C2213      C2214   1.419       .  A
C2213      C2218   1.408       .  A
C2214      C2215   1.403       .  A
C2214     Br2230   1.921       .  S
C2215      C2216   1.400       .  A
C2215      H2219   1.084       .  S
C2216      C2220   1.483       .  S
C2216      C2217   1.406       .  A
C2217      C2218   1.402       .  A
C2217     Br2229   1.918       .  S
C2218      H2221   1.083       .  S
C2220      C2222   1.404       .  A
C2220      C2226   1.406       .  A
C2222      C2223   1.405       .  A
C2222      H2227   1.083       .  S
C2223      C2224   1.414       .  A
C2223     Br2231   1.920       .  S
C2224      C2225   1.406       .  A
C2225      C2226   1.398       .  A
C2225      H2228   1.084       .  S
C2226     Br2232   1.919       .  S
C2233      C2234   1.415       .  A
C2233      C2238   1.406       .  A
C2234      C2235   1.402       .  A
C2234     Br2250   1.921       .  S
C2235      C2236   1.401       .  A
C2235      H2239   1.084       .  S
C2236      C2240   1.478       .  S
C2236      C2237   1.406       .  A
C2237      C2238   1.400       .  A
C2237     Br2249   1.918       .  S
C2238      H2241   1.083       .  S
C2240      C2242   1.402       .  A
C2240      C2246   1.407       .  A
C2242      C2243   1.401       .  A
C2242      H2247   1.083       .  S
C2243      C2244   1.413       .  A
C2243     Br2251   1.922       .  S
C2244      C2245   1.405       .  A
C2245      C2246   1.400       .  A
C2245      H2248   1.084       .  S
C2246     Br2252   1.918       .  S
C2253      C2254   1.420   1_545  A
C2253      C2258   1.414       .  A
C2254      C2255   1.405       .  A
C2254     Br2270   1.919       .  S
C2255      C2256   1.402   1_565  A
C2255      H2259   1.084   1_556  S
C2256      C2260   1.481   1_556  S
C2256      C2257   1.402       .  A
C2257      C2258   1.398       .  A
C2257     Br2269   1.920       .  S
C2258      H2261   1.083       .  S
C2260      C2262   1.404       .  A
C2260      C2266   1.408   1_545  A
C2262      C2263   1.403       .  A
C2262      H2267   1.083       .  S
C2263      C2264   1.408       .  A
C2263     Br2271   1.919       .  S
C2264      C2265   1.402   1_445  A
C2265      C2266   1.401   1_655  A
C2265      H2268   1.083       .  S
C2266     Br2272   1.918   1_455  S
C2273      C2274   1.414   1_545  A
C2273      C2278   1.407       .  A
C2274      C2275   1.394       .  A
C2274     Br2290   1.919       .  S
C2275      C2276   1.398   1_465  A
C2275      H2279   1.084   1_455  S
C2276      C2280   1.468       .  S
C2276      C2277   1.404   1_655  A
C2277      C2278   1.396       .  A
C2277     Br2289   1.918   1_455  S
C2278      H2281   1.083       .  S
C2280      C2282   1.400       .  A
C2280      C2286   1.404       .  A
C2282      C2283   1.396       .  A
C2282      H2287   1.084       .  S
C2283      C2284   1.410       .  A
C2283     Br2291   1.914       .  S
C2284      C2285   1.406       .  A
C2285      C2286   1.396       .  A
C2285      H2288   1.084       .  S
C2286     Br2292   1.919       .  S
C2293      C2294   1.419       .  A
C2293      C2298   1.408   1_545  A
C2294      C2295   1.403       .  A
C2294     Br2310   1.923       .  S
C2295      C2296   1.401       .  A
C2295      H2299   1.084       .  S
C2296      C2300   1.483       .  S
C2296      C2297   1.407   1_545  A
C2297      C2298   1.401       .  A
C2297     Br2309   1.918       .  S
C2298      H2301   1.083       .  S
C2300      C2302   1.404       .  A
C2300      C2306   1.408       .  A
C2302      C2303   1.403       .  A
C2302      H2307   1.083       .  S
C2303      C2304   1.413       .  A
C2303     Br2311   1.922       .  S
C2304      C2305   1.404       .  A
C2305      C2306   1.399       .  A
C2305      H2308   1.084       .  S
C2306     Br2312   1.918       .  S
C2313      C2314   1.415       .  A
C2313      C2318   1.406       .  A
C2314      C2315   1.402       .  A
C2314     Br2330   1.919       .  S
C2315      C2316   1.402       .  A
C2315      H2319   1.083       .  S
C2316      C2320   1.479       .  S
C2316      C2317   1.406       .  A
C2317      C2318   1.397       .  A
C2317     Br2329   1.920       .  S
C2318      H2321   1.084       .  S
C2320      C2322   1.401       .  A
C2320      C2326   1.408       .  A
C2322      C2323   1.401       .  A
C2322      H2327   1.083       .  S
C2323      C2324   1.415       .  A
C2323     Br2331   1.922       .  S
C2324      C2325   1.405       .  A
C2325      C2326   1.400       .  A
C2325      H2328   1.083       .  S
C2326     Br2332   1.920       .  S
C2333      C2334   1.419       .  A
C2333      C2338   1.411       .  A
C2334      C2335   1.395       .  A
C2334     Br2350   1.916       .  S
C2335      C2336   1.395       .  A
C2335      H2339   1.084       .  S
C2336      C2340   1.457       .  S
C2336      C2337   1.399       .  A
C2337      C2338   1.389       .  A
C2337     Br2349   1.921       .  S
C2338      H2341   1.083       .  S
C2340      C2342   1.400       .  A
C2340      C2346   1.401       .  A
C2342      C2343   1.398       .  A
C2342      H2347   1.083       .  S
C2343      C2344   1.409       .  A
C2343     Br2351   1.917       .  S
C2344      C2345   1.405       .  A
C2345      C2346   1.387       .  A
C2345      H2348   1.084       .  S
C2346     Br2352   1.922       .  S
C2353      C2354   1.416       .  A
C2353      C2358   1.408       .  A
C2354      C2355   1.403       .  A
C2354     Br2370   1.919       .  S
C2355      C2356   1.402       .  A
C2355      H2359   1.083       .  S
C2356      C2360   1.483       .  S
C2356      C2357   1.407       .  A
C2357      C2358   1.400       .  A
C2357     Br2369   1.919       .  S
C2358      H2361   1.084       .  S
C2360      C2362   1.400       .  A
C2360      C2366   1.409       .  A
C2362      C2363   1.398       .  A
C2362      H2367   1.084       .  S
C2363      C2364   1.413       .  A
C2363     Br2371   1.919       .  S
C2364      C2365   1.406       .  A
C2365      C2366   1.405       .  A
C2365      H2368   1.083       .  S
C2366     Br2372   1.917       .  S
C2373      C2374   1.413       .  A
C2373      C2378   1.407       .  A
C2374      C2375   1.399       .  A
C2374     Br2390   1.921       .  S
C2375      C2376   1.401       .  A
C2375      H2379   1.084       .  S
C2376      C2380   1.471       .  S
C2376      C2377   1.404       .  A
C2377      C2378   1.396       .  A
C2377     Br2389   1.919       .  S
C2378      H2381   1.084       .  S
C2380      C2382   1.396       .  A
C2380      C2386   1.406       .  A
C2382      C2383   1.396       .  A
C2382      H2387   1.084       .  S
C2383      C2384   1.418       .  A
C2383     Br2391   1.919       .  S
C2384      C2385   1.406       .  A
C2385      C2386   1.399       .  A
C2385      H2388   1.083       .  S
C2386     Br2392   1.918       .  S
C2393      C2394   1.414       .  A
C2393      C2398   1.407       .  A
C2394      C2395   1.399       .  A
C2394     Br2410   1.921       .  S
C2395      C2396   1.402       .  A
C2395      H2399   1.084       .  S
C2396      C2400   1.472       .  S
C2396      C2397   1.403       .  A
C2397      C2398   1.392       .  A
C2397     Br2409   1.920       .  S
C2398      H2401   1.084       .  S
C2400      C2402   1.399       .  A
C2400      C2406   1.404       .  A
C2402      C2403   1.396       .  A
C2402      H2407   1.084       .  S
C2403      C2404   1.416       .  A
C2403     Br2411   1.921       .  S
C2404      C2405   1.408       .  A
C2405      C2406   1.398       .  A
C2405      H2408   1.083       .  S
C2406     Br2412   1.920       .  S
C2413      C2414   1.413       .  A
C2413      C2418   1.406       .  A
C2414      C2415   1.395       .  A
C2414     Br2430   1.919       .  S
C2415      C2416   1.402       .  A
C2415      H2419   1.083       .  S
C2416      C2420   1.482       .  S
C2416      C2417   1.411       .  A
C2417      C2418   1.398       .  A
C2417     Br2429   1.921       .  S
C2418      H2421   1.083       .  S
C2420      C2422   1.400       .  A
C2420      C2426   1.408       .  A
C2422      C2423   1.398       .  A
C2422      H2427   1.084       .  S
C2423      C2424   1.421       .  A
C2423     Br2431   1.922       .  S
C2424      C2425   1.410       .  A
C2425      C2426   1.396       .  A
C2425      H2428   1.083       .  S
C2426     Br2432   1.921       .  S
C2433      C2434   1.420       .  A
C2433      C2438   1.411       .  A
C2434      C2435   1.401       .  A
C2434     Br2450   1.919       .  S
C2435      C2436   1.400       .  A
C2435      H2439   1.084       .  S
C2436      C2440   1.483       .  S
C2436      C2437   1.406       .  A
C2437      C2438   1.403       .  A
C2437     Br2449   1.919       .  S
C2438      H2441   1.083       .  S
C2440      C2442   1.399       .  A
C2440      C2446   1.405       .  A
C2442      C2443   1.401       .  A
C2442      H2447   1.084       .  S
C2443      C2444   1.423       .  A
C2443     Br2451   1.923       .  S
C2444      C2445   1.412       .  A
C2445      C2446   1.400       .  A
C2445      H2448   1.083       .  S
C2446     Br2452   1.919       .  S
C2453      C2454   1.417       .  A
C2453      C2458   1.410       .  A
C2454      C2455   1.404       .  A
C2454     Br2470   1.918       .  S
C2455      C2456   1.402       .  A
C2455      H2459   1.083       .  S
C2456      C2460   1.487       .  S
C2456      C2457   1.406       .  A
C2457      C2458   1.401       .  A
C2457     Br2469   1.919       .  S
C2458      H2461   1.083       .  S
C2460      C2462   1.404       .  A
C2460      C2466   1.409       .  A
C2462      C2463   1.402       .  A
C2462      H2467   1.084       .  S
C2463      C2464   1.412       .  A
C2463     Br2471   1.919       .  S
C2464      C2465   1.405       .  A
C2465      C2466   1.403       .  A
C2465      H2468   1.083       .  S
C2466     Br2472   1.917       .  S
C2473      C2474   1.417       .  A
C2473      C2478   1.408       .  A
C2474      C2475   1.408       .  A
C2474     Br2490   1.920       .  S
C2475      C2476   1.404       .  A
C2475      H2479   1.083       .  S
C2476      C2480   1.478       .  S
C2476      C2477   1.404       .  A
C2477      C2478   1.391       .  A
C2477     Br2489   1.922       .  S
C2478      H2481   1.083       .  S
C2480      C2482   1.404       .  A
C2480      C2486   1.403       .  A
C2482      C2483   1.406       .  A
C2482      H2487   1.083       .  S
C2483      C2484   1.415       .  A
C2483     Br2491   1.916       .  S
C2484      C2485   1.408       .  A
C2485      C2486   1.393       .  A
C2485      H2488   1.084       .  S
C2486     Br2492   1.920       .  S
C2493      C2494   1.417       .  A
C2493      C2498   1.409   1_655  A
C2494      C2495   1.401   1_655  A
C2494     Br2510   1.920       .  S
C2495      C2496   1.403       .  A
C2495      H2499   1.084       .  S
C2496      C2500   1.483       .  S
C2496      C2497   1.407       .  A
C2497      C2498   1.397       .  A
C2497     Br2509   1.920       .  S
C2498      H2501   1.083       .  S
C2500      C2502   1.405       .  A
C2500      C2506   1.408       .  A
C2502      C2503   1.402       .  A
C2502      H2507   1.083       .  S
C2503      C2504   1.413       .  A
C2503     Br2511   1.921       .  S
C2504      C2505   1.406       .  A
C2505      C2506   1.397       .  A
C2505      H2508   1.084       .  S
C2506     Br2512   1.920   1_455  S
C2513      C2514   1.417       .  A
C2513      C2518   1.407       .  A
C2514      C2515   1.396       .  A
C2514     Br2530   1.923       .  S
C2515      C2516   1.399       .  A
C2515      H2519   1.084       .  S
C2516      C2520   1.466       .  S
C2516      C2517   1.403       .  A
C2517      C2518   1.394       .  A
C2517     Br2529   1.918       .  S
C2518      H2521   1.083       .  S
C2520      C2522   1.396       .  A
C2520      C2526   1.408       .  A
C2522      C2523   1.390       .  A
C2522      H2527   1.084       .  S
C2523      C2524   1.412       .  A
C2523     Br2531   1.921       .  S
C2524      C2525   1.402       .  A
C2525      C2526   1.400       .  A
C2525      H2528   1.084       .  S
C2526     Br2532   1.917       .  S
C2533      C2534   1.409       .  A
C2533      C2538   1.403       .  A
C2534      C2535   1.397       .  A
C2534     Br2550   1.918       .  S
C2535      C2536   1.401       .  A
C2535      H2539   1.084       .  S
C2536      C2540   1.471       .  S
C2536      C2537   1.408       .  A
C2537      C2538   1.399       .  A
C2537     Br2549   1.920       .  S
C2538      H2541   1.084       .  S
C2540      C2542   1.399       .  A
C2540      C2546   1.406       .  A
C2542      C2543   1.392       .  A
C2542      H2547   1.084       .  S
C2543      C2544   1.409       .  A
C2543     Br2551   1.919       .  S
C2544      C2545   1.406       .  A
C2545      C2546   1.402       .  A
C2545      H2548   1.084       .  S
C2546     Br2552   1.917       .  S
C2553      C2554   1.412       .  A
C2553      C2558   1.406       .  A
C2554      C2555   1.394       .  A
C2554     Br2570   1.922       .  S
C2555      C2556   1.399       .  A
C2555      H2559   1.084       .  S
C2556      C2560   1.462       .  S
C2556      C2557   1.402       .  A
C2557      C2558   1.392       .  A
C2557     Br2569   1.918       .  S
C2558      H2561   1.083       .  S
C2560      C2562   1.403       .  A
C2560      C2566   1.402       .  A
C2562      C2563   1.398       .  A
C2562      H2567   1.084       .  S
C2563      C2564   1.408       .  A
C2563     Br2571   1.919       .  S
C2564      C2565   1.403       .  A
C2565      C2566   1.388       .  A
C2565      H2568   1.084       .  S
C2566     Br2572   1.919       .  S
C2573      C2574   1.416   1_655  A
C2573      C2578   1.406       .  A
C2574      C2575   1.406       .  A
C2574     Br2590   1.920       .  S
C2575      C2576   1.404   1_455  A
C2575      H2579   1.083       .  S
C2576      C2580   1.484       .  S
C2576      C2577   1.407       .  A
C2577      C2578   1.397       .  A
C2577     Br2589   1.918       .  S
C2578      H2581   1.083       .  S
C2580      C2582   1.403       .  A
C2580      C2586   1.407       .  A
C2582      C2583   1.402       .  A
C2582      H2587   1.084       .  S
C2583      C2584   1.414       .  A
C2583     Br2591   1.917       .  S
C2584      C2585   1.406       .  A
C2585      C2586   1.401       .  A
C2585      H2588   1.082       .  S
C2586     Br2592   1.917       .  S
C2593      C2594   1.410       .  A
C2593      C2598   1.401       .  A
C2594      C2595   1.407       .  A
C2594     Br2610   1.919   1_554  S
C2595      C2596   1.405       .  A
C2595      H2599   1.083   1_554  S
C2596      C2600   1.479       .  S
C2596      C2597   1.407       .  A
C2597      C2598   1.394       .  A
C2597     Br2609   1.921       .  S
C2598      H2601   1.084       .  S
C2600      C2602   1.404       .  A
C2600      C2606   1.407       .  A
C2602      C2603   1.401       .  A
C2602      H2607   1.084       .  S
C2603      C2604   1.407       .  A
C2603     Br2611   1.919       .  S
C2604      C2605   1.403       .  A
C2605      C2606   1.401       .  A
C2605      H2608   1.083       .  S
C2606     Br2612   1.917       .  S
C2613      C2614   1.415       .  A
C2613      C2618   1.406       .  A
C2614      C2615   1.398       .  A
C2614     Br2630   1.920       .  S
C2615      C2616   1.400       .  A
C2615      H2619   1.084       .  S
C2616      C2620   1.477       .  S
C2616      C2617   1.407       .  A
C2617      C2618   1.399       .  A
C2617     Br2629   1.918       .  S
C2618      H2621   1.083       .  S
C2620      C2622   1.397       .  A
C2620      C2626   1.408       .  A
C2622      C2623   1.396       .  A
C2622      H2627   1.084       .  S
C2623      C2624   1.416       .  A
C2623     Br2631   1.919       .  S
C2624      C2625   1.408       .  A
C2625      C2626   1.403       .  A
C2625      H2628   1.083       .  S
C2626     Br2632   1.919       .  S
C2633      C2634   1.410       .  A
C2633      C2638   1.399       .  A
C2634      C2635   1.390       .  A
C2634     Br2650   1.921       .  S
C2635      C2636   1.397       .  A
C2635      H2639   1.084       .  S
C2636      C2640   1.465       .  S
C2636      C2637   1.409       .  A
C2637      C2638   1.397       .  A
C2637     Br2649   1.918   1_556  S
C2638      H2641   1.084       .  S
C2640      C2642   1.401       .  A
C2640      C2646   1.405       .  A
C2642      C2643   1.394       .  A
C2642      H2647   1.084       .  S
C2643      C2644   1.407       .  A
C2643     Br2651   1.918       .  S
C2644      C2645   1.404       .  A
C2645      C2646   1.396       .  A
C2645      H2648   1.084   1_556  S
C2646     Br2652   1.920       .  S
C2653      C2654   1.415       .  A
C2653      C2658   1.407       .  A
C2654      C2655   1.401       .  A
C2654     Br2670   1.922       .  S
C2655      C2656   1.401       .  A
C2655      H2659   1.083       .  S
C2656      C2660   1.478       .  S
C2656      C2657   1.405       .  A
C2657      C2658   1.398       .  A
C2657     Br2669   1.919       .  S
C2658      H2661   1.083       .  S
C2660      C2662   1.399       .  A
C2660      C2666   1.405       .  A
C2662      C2663   1.400       .  A
C2662      H2667   1.084       .  S
C2663      C2664   1.421       .  A
C2663     Br2671   1.922       .  S
C2664      C2665   1.409       .  A
C2665      C2666   1.400       .  A
C2665      H2668   1.083       .  S
C2666     Br2672   1.918       .  S
C2673      C2674   1.413       .  A
C2673      C2678   1.407       .  A
C2674      C2675   1.400       .  A
C2674     Br2690   1.914       .  S
C2675      C2676   1.401       .  A
C2675      H2679   1.084       .  S
C2676      C2680   1.474       .  S
C2676      C2677   1.405       .  A
C2677      C2678   1.397       .  A
C2677     Br2689   1.918       .  S
C2678      H2681   1.084       .  S
C2680      C2682   1.400       .  A
C2680      C2686   1.404       .  A
C2682      C2683   1.403       .  A
C2682      H2687   1.083       .  S
C2683      C2684   1.419       .  A
C2683     Br2691   1.922       .  S
C2684      C2685   1.410       .  A
C2685      C2686   1.392       .  A
C2685      H2688   1.083       .  S
C2686     Br2692   1.922       .  S
C2693      C2694   1.414       .  A
C2693      C2698   1.405       .  A
C2694      C2695   1.390   1_455  A
C2694     Br2710   1.921       .  S
C2695      C2696   1.397       .  A
C2695      H2699   1.084       .  S
C2696      C2700   1.457       .  S
C2696      C2697   1.402       .  A
C2697      C2698   1.392   1_655  A
C2697     Br2709   1.919       .  S
C2698      H2701   1.083       .  S
C2700      C2702   1.401       .  A
C2700      C2706   1.402       .  A
C2702      C2703   1.395       .  A
C2702      H2707   1.084       .  S
C2703      C2704   1.408       .  A
C2703     Br2711   1.919       .  S
C2704      C2705   1.403       .  A
C2705      C2706   1.387       .  A
C2705      H2708   1.084       .  S
C2706     Br2712   1.922       .  S
C2713      C2714   1.423       .  A
C2713      C2718   1.412       .  A
C2714      C2715   1.401       .  A
C2714     Br2730   1.923       .  S
C2715      C2716   1.400       .  A
C2715      H2719   1.084       .  S
C2716      C2720   1.476       .  S
C2716      C2717   1.402       .  A
C2717      C2718   1.396       .  A
C2717     Br2729   1.918       .  S
C2718      H2721   1.083       .  S
C2720      C2722   1.399       .  A
C2720      C2726   1.403       .  A
C2722      C2723   1.400       .  A
C2722      H2727   1.084       .  S
C2723      C2724   1.420       .  A
C2723     Br2731   1.923       .  S
C2724      C2725   1.412       .  A
C2725      C2726   1.398       .  A
C2725      H2728   1.083       .  S
C2726     Br2732   1.919       .  S
C2733      C2734   1.407       .  A
C2733      C2738   1.401       .  A
C2734      C2735   1.396       .  A
C2734     Br2750   1.919       .  S
C2735      C2736   1.402       .  A
C2735      H2739   1.084       .  S
C2736      C2740   1.482       .  S
C2736      C2737   1.412       .  A
C2737      C2738   1.403       .  A
C2737     Br2749   1.917       .  S
C2738      H2741   1.083       .  S
C2740      C2742   1.404       .  A
C2740      C2746   1.408       .  A
C2742      C2743   1.401       .  A
C2742      H2747   1.084       .  S
C2743      C2744   1.411       .  A
C2743     Br2751   1.919       .  S
C2744      C2745   1.405       .  A
C2745      C2746   1.399       .  A
C2745      H2748   1.084       .  S
C2746     Br2752   1.919       .  S
C2753      C2754   1.417       .  A
C2753      C2758   1.408       .  A
C2754      C2755   1.406       .  A
C2754     Br2770   1.918       .  S
C2755      C2756   1.402       .  A
C2755      H2759   1.083       .  S
C2756      C2760   1.475       .  S
C2756      C2757   1.404       .  A
C2757      C2758   1.392       .  A
C2757     Br2769   1.922       .  S
C2758      H2761   1.084       .  S
C2760      C2762   1.401       .  A
C2760      C2766   1.407       .  A
C2762      C2763   1.399       .  A
C2762      H2767   1.084       .  S
C2763      C2764   1.413       .  A
C2763     Br2771   1.919       .  S
C2764      C2765   1.404       .  A
C2765      C2766   1.399       .  A
C2765      H2768   1.084       .  S
C2766     Br2772   1.919       .  S
C2773      C2774   1.416       .  A
C2773      C2778   1.407       .  A
C2774      C2775   1.398       .  A
C2774     Br2790   1.918       .  S
C2775      C2776   1.399   1_556  A
C2775      H2779   1.084       .  S
C2776      C2780   1.483       .  S
C2776      C2777   1.410   1_554  A
C2777      C2778   1.404       .  A
C2777     Br2789   1.918   1_556  S
C2778      H2781   1.083       .  S
C2780      C2782   1.399       .  A
C2780      C2786   1.410       .  A
C2782      C2783   1.399       .  A
C2782      H2787   1.084       .  S
C2783      C2784   1.417       .  A
C2783     Br2791   1.919       .  S
C2784      C2785   1.408       .  A
C2785      C2786   1.405       .  A
C2785      H2788   1.083       .  S
C2786     Br2792   1.919       .  S
C2793      C2794   1.405       .  A
C2793      C2798   1.401       .  A
C2794      C2795   1.396       .  A
C2794     Br2810   1.919       .  S
C2795      C2796   1.402       .  A
C2795      H2799   1.084       .  S
C2796      C2800   1.466       .  S
C2796      C2797   1.405       .  A
C2797      C2798   1.394       .  A
C2797     Br2809   1.919       .  S
C2798      H2801   1.084       .  S
C2800      C2802   1.398       .  A
C2800      C2806   1.404       .  A
C2802      C2803   1.394       .  A
C2802      H2807   1.084       .  S
C2803      C2804   1.414       .  A
C2803     Br2811   1.922       .  S
C2804      C2805   1.406       .  A
C2805      C2806   1.396       .  A
C2805      H2808   1.083       .  S
C2806     Br2812   1.919       .  S
C2813      C2814   1.416       .  A
C2813      C2818   1.407   1_556  A
C2814      C2815   1.398   1_556  A
C2814     Br2830   1.920       .  S
C2815      C2816   1.400       .  A
C2815      H2819   1.084   1_554  S
C2816      C2820   1.476       .  S
C2816      C2817   1.406       .  A
C2817      C2818   1.400       .  A
C2817     Br2829   1.917       .  S
C2818      H2821   1.083       .  S
C2820      C2822   1.403       .  A
C2820      C2826   1.402   1_554  A
C2822      C2823   1.408       .  A
C2822      H2827   1.083       .  S
C2823      C2824   1.418   1_554  A
C2823     Br2831   1.919       .  S
C2824      C2825   1.409       .  A
C2825      C2826   1.391       .  A
C2825      H2828   1.083       .  S
C2826     Br2832   1.923       .  S
C2833      C2834   1.417       .  A
C2833      C2838   1.406   1_545  A
C2834      C2835   1.402       .  A
C2834     Br2850   1.920       .  S
C2835      C2836   1.400       .  A
C2835      H2839   1.084       .  S
C2836      C2840   1.486       .  S
C2836      C2837   1.410   1_545  A
C2837      C2838   1.403       .  A
C2837     Br2849   1.917       .  S
C2838      H2841   1.083       .  S
C2840      C2842   1.404       .  A
C2840      C2846   1.404       .  A
C2842      C2843   1.407       .  A
C2842      H2847   1.083       .  S
C2843      C2844   1.416       .  A
C2843     Br2851   1.915       .  S
C2844      C2845   1.410       .  A
C2845      C2846   1.400       .  A
C2845      H2848   1.083       .  S
C2846     Br2852   1.918       .  S
C2853      C2854   1.413       .  A
C2853      C2858   1.403   1_545  A
C2854      C2855   1.398       .  A
C2854     Br2870   1.918       .  S
C2855      C2856   1.400       .  A
C2855      H2859   1.084       .  S
C2856      C2860   1.470       .  S
C2856      C2857   1.405   1_545  A
C2857      C2858   1.394       .  A
C2857     Br2869   1.918       .  S
C2858      H2861   1.084       .  S
C2860      C2862   1.400       .  A
C2860      C2866   1.407       .  A
C2862      C2863   1.396       .  A
C2862      H2867   1.084       .  S
C2863      C2864   1.409       .  A
C2863     Br2871   1.919       .  S
C2864      C2865   1.401       .  A
C2865      C2866   1.396       .  A
C2865      H2868   1.084       .  S
C2866     Br2872   1.918       .  S
C2873      C2874   1.414       .  A
C2873      C2878   1.407       .  A
C2874      C2875   1.402       .  A
C2874     Br2890   1.919       .  S
C2875      C2876   1.402       .  A
C2875      H2879   1.084       .  S
C2876      C2880   1.482       .  S
C2876      C2877   1.408       .  A
C2877      C2878   1.402       .  A
C2877     Br2889   1.918       .  S
C2878      H2881   1.083       .  S
C2880      C2882   1.403       .  A
C2880      C2886   1.406       .  A
C2882      C2883   1.405       .  A
C2882      H2887   1.083       .  S
C2883      C2884   1.415       .  A
C2883     Br2891   1.919       .  S
C2884      C2885   1.408       .  A
C2885      C2886   1.397       .  A
C2885      H2888   1.083       .  S
C2886     Br2892   1.920       .  S
C2893      C2894   1.413       .  A
C2893      C2898   1.408       .  A
C2894      C2895   1.405       .  A
C2894     Br2910   1.915       .  S
C2895      C2896   1.402       .  A
C2895      H2899   1.083       .  S
C2896      C2900   1.475       .  S
C2896      C2897   1.404       .  A
C2897      C2898   1.394       .  A
C2897     Br2909   1.921       .  S
C2898      H2901   1.084       .  S
C2900      C2902   1.399       .  A
C2900      C2906   1.408       .  A
C2902      C2903   1.398       .  A
C2902      H2907   1.084       .  S
C2903      C2904   1.412       .  A
C2903     Br2911   1.921       .  S
C2904      C2905   1.403       .  A
C2905      C2906   1.401       .  A
C2905      H2908   1.084       .  S
C2906     Br2912   1.919       .  S
C2913      C2914   1.412       .  A
C2913      C2918   1.412       .  A
C2914      C2915   1.397       .  A
C2914     Br2930   1.917       .  S
C2915      C2916   1.401       .  A
C2915      H2919   1.084       .  S
C2916      C2920   1.469       .  S
C2916      C2917   1.401       .  A
C2917      C2918   1.394       .  A
C2917     Br2929   1.921       .  S
C2918      H2921   1.083       .  S
C2920      C2922   1.401       .  A
C2920      C2926   1.403       .  A
C2922      C2923   1.400       .  A
C2922      H2927   1.084       .  S
C2923      C2924   1.416       .  A
C2923     Br2931   1.922       .  S
C2924      C2925   1.407       .  A
C2925      C2926   1.390       .  A
C2925      H2928   1.083       .  S
C2926     Br2932   1.922       .  S
C2933      C2934   1.421       .  A
C2933      C2938   1.412       .  A
C2934      C2935   1.405       .  A
C2934     Br2950   1.919       .  S
C2935      C2936   1.402       .  A
C2935      H2939   1.083       .  S
C2936      C2940   1.483       .  S
C2936      C2937   1.404       .  A
C2937      C2938   1.396       .  A
C2937     Br2949   1.921       .  S
C2938      H2941   1.083       .  S
C2940      C2942   1.401       .  A
C2940      C2946   1.406       .  A
C2942      C2943   1.404       .  A
C2942      H2947   1.084       .  S
C2943      C2944   1.421       .  A
C2943     Br2951   1.922       .  S
C2944      C2945   1.410       .  A
C2945      C2946   1.398       .  A
C2945      H2948   1.083       .  S
C2946     Br2952   1.920       .  S
C2953      C2954   1.416       .  A
C2953      C2958   1.408       .  A
C2954      C2955   1.397       .  A
C2954     Br2970   1.919       .  S
C2955      C2956   1.399       .  A
C2955      H2959   1.084       .  S
C2956      C2960   1.478       .  S
C2956      C2957   1.407       .  A
C2957      C2958   1.402       .  A
C2957     Br2969   1.918       .  S
C2958      H2961   1.083       .  S
C2960      C2962   1.403       .  A
C2960      C2966   1.404       .  A
C2962      C2963   1.406       .  A
C2962      H2967   1.084       .  S
C2963      C2964   1.421       .  A
C2963     Br2971   1.919       .  S
C2964      C2965   1.410       .  A
C2965      C2966   1.390       .  A
C2965      H2968   1.083       .  S
C2966     Br2972   1.922       .  S
C2973      C2974   1.412       .  A
C2973      C2978   1.406   1_545  A
C2974      C2975   1.393       .  A
C2974     Br2990   1.921       .  S
C2975      C2976   1.398       .  A
C2975      H2979   1.084       .  S
C2976      C2980   1.467       .  S
C2976      C2977   1.405   1_545  A
C2977      C2978   1.398       .  A
C2977     Br2989   1.918       .  S
C2978      H2981   1.083       .  S
C2980      C2982   1.396       .  A
C2980      C2986   1.409       .  A
C2982      C2983   1.390       .  A
C2982      H2987   1.084       .  S
C2983      C2984   1.409       .  A
C2983     Br2991   1.920       .  S
C2984      C2985   1.403       .  A
C2985      C2986   1.401       .  A
C2985      H2988   1.084       .  S
C2986     Br2992   1.918       .  S
C2993      C2994   1.417       .  A
C2993      C2998   1.405   1_545  A
C2994      C2995   1.398       .  A
C2994     Br3010   1.923       .  S
C2995      C2996   1.399       .  A
C2995      H2999   1.084       .  S
C2996      C3000   1.475       .  S
C2996      C2997   1.407   1_545  A
C2997      C2998   1.399       .  A
C2997     Br3009   1.918       .  S
C2998      H3001   1.083       .  S
C3000      C3002   1.402       .  A
C3000      C3006   1.405       .  A
C3002      C3003   1.399       .  A
C3002      H3007   1.084       .  S
C3003      C3004   1.415       .  A
C3003     Br3011   1.923       .  S
C3004      C3005   1.407       .  A
C3005      C3006   1.397       .  A
C3005      H3008   1.084       .  S
C3006     Br3012   1.918   1_545  S
C3013      C3014   1.418       .  A
C3013      C3018   1.408       .  A
C3014      C3015   1.397       .  A
C3014     Br3030   1.919       .  S
C3015      C3016   1.397       .  A
C3015      H3019   1.084       .  S
C3016      C3020   1.475       .  S
C3016      C3017   1.407       .  A
C3017      C3018   1.399       .  A
C3017     Br3029   1.919       .  S
C3018      H3021   1.083       .  S
C3020      C3022   1.400       .  A
C3020      C3026   1.402       .  A
C3022      C3023   1.404       .  A
C3022      H3027   1.084       .  S
C3023      C3024   1.423       .  A
C3023     Br3031   1.922       .  S
C3024      C3025   1.411       .  A
C3025      C3026   1.393       .  A
C3025      H3028   1.082       .  S
C3026     Br3032   1.921       .  S
C3033      C3034   1.415       .  A
C3033      C3038   1.410   1_545  A
C3034      C3035   1.403       .  A
C3034     Br3050   1.921       .  S
C3035      C3036   1.402       .  A
C3035      H3039   1.083       .  S
C3036      C3040   1.481       .  S
C3036      C3037   1.405   1_545  A
C3037      C3038   1.400       .  A
C3037     Br3049   1.920       .  S
C3038      H3041   1.083       .  S
C3040      C3042   1.402       .  A
C3040      C3046   1.409   1_545  A
C3042      C3043   1.400       .  A
C3042      H3047   1.083       .  S
C3043      C3044   1.410       .  A
C3043     Br3051   1.918       .  S
C3044      C3045   1.404   1_545  A
C3045      C3046   1.401       .  A
C3045      H3048   1.082       .  S
C3046     Br3052   1.918       .  S
C3053      C3054   1.404       .  A
C3053      C3058   1.399   1_545  A
C3054      C3055   1.394       .  A
C3054     Br3070   1.919       .  S
C3055      C3056   1.401       .  A
C3055      H3059   1.084       .  S
C3056      C3060   1.461       .  S
C3056      C3057   1.406   1_545  A
C3057      C3058   1.391       .  A
C3057     Br3069   1.921       .  S
C3058      H3061   1.084       .  S
C3060      C3062   1.398   1_545  A
C3060      C3066   1.408       .  A
C3062      C3063   1.389       .  A
C3062      H3067   1.084       .  S
C3063      C3064   1.406   1_565  A
C3063     Br3071   1.920       .  S
C3064      C3065   1.401       .  A
C3065      C3066   1.396       .  A
C3065      H3068   1.084       .  S
C3066     Br3072   1.919       .  S
C3073      C3074   1.409       .  A
C3073      C3078   1.401   1_545  A
C3074      C3075   1.397       .  A
C3074     Br3090   1.918       .  S
C3075      C3076   1.401       .  A
C3075      H3079   1.083       .  S
C3076      C3080   1.470       .  S
C3076      C3077   1.409   1_545  A
C3077      C3078   1.393       .  A
C3077     Br3089   1.922       .  S
C3078      H3081   1.084       .  S
C3080      C3082   1.400       .  A
C3080      C3086   1.408       .  A
C3082      C3083   1.391       .  A
C3082      H3087   1.084       .  S
C3083      C3084   1.409       .  A
C3083     Br3091   1.919       .  S
C3084      C3085   1.403       .  A
C3085      C3086   1.396       .  A
C3085      H3088   1.084       .  S
C3086     Br3092   1.918       .  S
C3093      C3094   1.418       .  A
C3093      C3098   1.406       .  A
C3094      C3095   1.402       .  A
C3094     Br3110   1.920       .  S
C3095      C3096   1.400       .  A
C3095      H3099   1.084       .  S
C3096      C3100   1.479       .  S
C3096      C3097   1.405       .  A
C3097      C3098   1.400       .  A
C3097     Br3109   1.918       .  S
C3098      H3101   1.083       .  S
C3100      C3102   1.401       .  A
C3100      C3106   1.408       .  A
C3102      C3103   1.399       .  A
C3102      H3107   1.083       .  S
C3103      C3104   1.410       .  A
C3103     Br3111   1.919       .  S
C3104      C3105   1.404       .  A
C3105      C3106   1.402       .  A
C3105      H3108   1.083       .  S
C3106     Br3112   1.918       .  S
C3113      C3114   1.406       .  A
C3113      C3118   1.401       .  A
C3114      C3115   1.393       .  A
C3114     Br3130   1.920       .  S
C3115      C3116   1.401       .  A
C3115      H3119   1.084       .  S
C3116      C3120   1.474       .  S
C3116      C3117   1.410       .  A
C3117      C3118   1.400       .  A
C3117     Br3129   1.919       .  S
C3118      H3121   1.084       .  S
C3120      C3122   1.404       .  A
C3120      C3126   1.407       .  A
C3122      C3123   1.399       .  A
C3122      H3127   1.083       .  S
C3123      C3124   1.409       .  A
C3123     Br3131   1.919       .  S
C3124      C3125   1.403       .  A
C3125      C3126   1.394       .  A
C3125      H3128   1.084       .  S
C3126     Br3132   1.920       .  S
C3133      C3134   1.422       .  A
C3133      C3138   1.412       .  A
C3134      C3135   1.401       .  A
C3134     Br3150   1.921       .  S
C3135      C3136   1.399       .  A
C3135      H3139   1.084       .  S
C3136      C3140   1.480       .  S
C3136      C3137   1.405       .  A
C3137      C3138   1.399       .  A
C3137     Br3149   1.919       .  S
C3138      H3141   1.083       .  S
C3140      C3142   1.401       .  A
C3140      C3146   1.404       .  A
C3142      C3143   1.406       .  A
C3142      H3147   1.083       .  S
C3143      C3144   1.422       .  A
C3143     Br3151   1.921       .  S
C3144      C3145   1.411       .  A
C3145      C3146   1.395       .  A
C3145      H3148   1.082       .  S
C3146     Br3152   1.921       .  S
C3153      C3154   1.408       .  A
C3153      C3158   1.400       .  A
C3154      C3155   1.397       .  A
C3154     Br3170   1.920       .  S
C3155      C3156   1.402       .  A
C3155      H3159   1.084       .  S
C3156      C3160   1.479       .  S
C3156      C3157   1.411   1_545  A
C3157      C3158   1.400   1_565  A
C3157     Br3169   1.918       .  S
C3158      H3161   1.084   1_545  S
C3160      C3162   1.404   1_545  A
C3160      C3166   1.405       .  A
C3162      C3163   1.404       .  A
C3162      H3167   1.084       .  S
C3163      C3164   1.416   1_565  A
C3163     Br3171   1.919       .  S
C3164      C3165   1.409       .  A
C3165      C3166   1.395       .  A
C3165      H3168   1.083       .  S
C3166     Br3172   1.921       .  S
C3173      C3174   1.408   1_545  A
C3173      C3178   1.403       .  A
C3174      C3175   1.397       .  A
C3174     Br3190   1.919       .  S
C3175      C3176   1.404   1_565  A
C3175      H3179   1.084       .  S
C3176      C3180   1.477       .  S
C3176      C3177   1.409       .  A
C3177      C3178   1.397       .  A
C3177     Br3189   1.919       .  S
C3178      H3181   1.084       .  S
C3180      C3182   1.404       .  A
C3180      C3186   1.408       .  A
C3182      C3183   1.398       .  A
C3182      H3187   1.083       .  S
C3183      C3184   1.408       .  A
C3183     Br3191   1.920       .  S
C3184      C3185   1.404       .  A
C3185      C3186   1.397       .  A
C3185      H3188   1.084       .  S
C3186     Br3192   1.920       .  S
C3193      C3194   1.404       .  A
C3193      C3198   1.402   1_545  A
C3194      C3195   1.392       .  A
C3194     Br3210   1.918       .  S
C3195      C3196   1.401       .  A
C3195      H3199   1.083       .  S
C3196      C3200   1.463       .  S
C3196      C3197   1.407   1_545  A
C3197      C3198   1.392       .  A
C3197     Br3209   1.922       .  S
C3198      H3201   1.084       .  S
C3200      C3202   1.398   1_545  A
C3200      C3206   1.409       .  A
C3202      C3203   1.389       .  A
C3202      H3207   1.084       .  S
C3203      C3204   1.407   1_565  A
C3203     Br3211   1.920   1_556  S
C3204      C3205   1.399       .  A
C3205      C3206   1.395       .  A
C3205      H3208   1.084       .  S
C3206     Br3212   1.920       .  S
C3213      C3214   1.416       .  A
C3213      C3218   1.407       .  A
C3214      C3215   1.398       .  A
C3214     Br3230   1.920       .  S
C3215      C3216   1.400       .  A
C3215      H3219   1.084       .  S
C3216      C3220   1.479       .  S
C3216      C3217   1.407       .  A
C3217      C3218   1.401       .  A
C3217     Br3229   1.919   1_545  S
C3218      H3221   1.083   1_545  S
C3220      C3222   1.402   1_545  A
C3220      C3226   1.408       .  A
C3222      C3223   1.398       .  A
C3222      H3227   1.084       .  S
C3223      C3224   1.412   1_565  A
C3223     Br3231   1.921       .  S
C3224      C3225   1.406       .  A
C3225      C3226   1.399       .  A
C3225      H3228   1.084       .  S
C3226     Br3232   1.919       .  S
C3233      C3234   1.409       .  A
C3233      C3238   1.402       .  A
C3234      C3235   1.398       .  A
C3234     Br3250   1.919       .  S
C3235      C3236   1.401       .  A
C3235      H3239   1.083       .  S
C3236      C3240   1.471       .  S
C3236      C3237   1.407       .  A
C3237      C3238   1.396       .  A
C3237     Br3249   1.920       .  S
C3238      H3241   1.084       .  S
C3240      C3242   1.400       .  A
C3240      C3246   1.408       .  A
C3242      C3243   1.394       .  A
C3242      H3247   1.084       .  S
C3243      C3244   1.408       .  A
C3243     Br3251   1.919   1_554  S
C3244      C3245   1.402       .  A
C3245      C3246   1.400       .  A
C3245      H3248   1.084       .  S
C3246     Br3252   1.918       .  S
C3253      C3254   1.413       .  A
C3253      C3258   1.408       .  A
C3254      C3255   1.397       .  A
C3254     Br3270   1.922       .  S
C3255      C3256   1.400       .  A
C3255      H3259   1.084       .  S
C3256      C3260   1.475       .  S
C3256      C3257   1.406       .  A
C3257      C3258   1.401       .  A
C3257     Br3269   1.918       .  S
C3258      H3261   1.083       .  S
C3260      C3262   1.400       .  A
C3260      C3266   1.406       .  A
C3262      C3263   1.399       .  A
C3262      H3267   1.084       .  S
C3263      C3264   1.415       .  A
C3263     Br3271   1.919       .  S
C3264      C3265   1.406       .  A
C3265      C3266   1.398       .  A
C3265      H3268   1.083       .  S
C3266     Br3272   1.918       .  S
C3273      C3274   1.415       .  A
C3273      C3278   1.409       .  A
C3274      C3275   1.399       .  A
C3274     Br3290   1.921       .  S
C3275      C3276   1.401       .  A
C3275      H3279   1.084       .  S
C3276      C3280   1.482       .  S
C3276      C3277   1.408       .  A
C3277      C3278   1.403       .  A
C3277     Br3289   1.919       .  S
C3278      H3281   1.083       .  S
C3280      C3282   1.401       .  A
C3280      C3286   1.408       .  A
C3282      C3283   1.397       .  A
C3282      H3287   1.084       .  S
C3283      C3284   1.412       .  A
C3283     Br3291   1.920       .  S
C3284      C3285   1.408       .  A
C3285      C3286   1.407       .  A
C3285      H3288   1.083       .  S
C3286     Br3292   1.918       .  S
C3293      C3294   1.419       .  A
C3293      C3298   1.408       .  A
C3294      C3295   1.404       .  A
C3294     Br3310   1.920       .  S
C3295      C3296   1.401       .  A
C3295      H3299   1.083       .  S
C3296      C3300   1.471       .  S
C3296      C3297   1.403       .  A
C3297      C3298   1.390       .  A
C3297     Br3309   1.921       .  S
C3298      H3301   1.083       .  S
C3300      C3302   1.401       .  A
C3300      C3306   1.407       .  A
C3302      C3303   1.397       .  A
C3302      H3307   1.084       .  S
C3303      C3304   1.410       .  A
C3303     Br3311   1.920       .  S
C3304      C3305   1.403       .  A
C3305      C3306   1.397       .  A
C3305      H3308   1.084       .  S
C3306     Br3312   1.917       .  S
C3313      C3314   1.417       .  A
C3313      C3318   1.411       .  A
C3314      C3315   1.408       .  A
C3314     Br3330   1.920       .  S
C3315      C3316   1.405       .  A
C3315      H3319   1.083       .  S
C3316      C3320   1.486       .  S
C3316      C3317   1.404       .  A
C3317      C3318   1.399       .  A
C3317     Br3329   1.919       .  S
C3318      H3321   1.083       .  S
C3320      C3322   1.402   1_554  A
C3320      C3326   1.410   1_554  A
C3322      C3323   1.402       .  A
C3322      H3327   1.083   1_556  S
C3323      C3324   1.414       .  A
C3323     Br3331   1.920       .  S
C3324      C3325   1.406       .  A
C3325      C3326   1.404       .  A
C3325      H3328   1.083       .  S
C3326     Br3332   1.918   1_556  S
C3333      C3334   1.409   1_556  A
C3333      C3338   1.402       .  A
C3334      C3335   1.392   1_554  A
C3334     Br3350   1.920       .  S
C3335      C3336   1.396       .  A
C3335      H3339   1.084   1_556  S
C3336      C3340   1.466       .  S
C3336      C3337   1.407       .  A
C3337      C3338   1.401       .  A
C3337     Br3349   1.919       .  S
C3338      H3341   1.083       .  S
C3340      C3342   1.401       .  A
C3340      C3346   1.402       .  A
C3342      C3343   1.396       .  A
C3342      H3347   1.084       .  S
C3343      C3344   1.412       .  A
C3343     Br3351   1.921       .  S
C3344      C3345   1.406       .  A
C3345      C3346   1.393       .  A
C3345      H3348   1.083       .  S
C3346     Br3352   1.918       .  S
C3353      C3354   1.410       .  A
C3353      C3358   1.404       .  A
C3354      C3355   1.397       .  A
C3354     Br3370   1.919       .  S
C3355      C3356   1.402       .  A
C3355      H3359   1.084       .  S
C3356      C3360   1.468       .  S
C3356      C3357   1.406       .  A
C3357      C3358   1.392       .  A
C3357     Br3369   1.921       .  S
C3358      H3361   1.084       .  S
C3360      C3362   1.399       .  A
C3360      C3366   1.404       .  A
C3362      C3363   1.392       .  A
C3362      H3367   1.084       .  S
C3363      C3364   1.412       .  A
C3363     Br3371   1.919       .  S
C3364      C3365   1.407       .  A
C3365      C3366   1.397       .  A
C3365      H3368   1.083       .  S
C3366     Br3372   1.918       .  S
C3373      C3374   1.413   1_556  A
C3373      C3378   1.405       .  A
C3374      C3375   1.409       .  A
C3374     Br3390   1.919       .  S
C3375      C3376   1.407       .  A
C3375      H3379   1.083       .  S
C3376      C3380   1.485       .  S
C3376      C3377   1.406   1_554  A
C3377      C3378   1.394       .  A
C3377     Br3389   1.920       .  S
C3378      H3381   1.084       .  S
C3380      C3382   1.403       .  A
C3380      C3386   1.409       .  A
C3382      C3383   1.401       .  A
C3382      H3387   1.084       .  S
C3383      C3384   1.413       .  A
C3383     Br3391   1.921       .  S
C3384      C3385   1.404       .  A
C3385      C3386   1.404       .  A
C3385      H3388   1.083       .  S
C3386     Br3392   1.918       .  S
C3393      C3394   1.410       .  A
C3393      C3398   1.406       .  A
C3394      C3395   1.396       .  A
C3394     Br3410   1.921       .  S
C3395      C3396   1.403       .  A
C3395      H3399   1.084       .  S
C3396      C3400   1.462       .  S
C3396      C3397   1.401       .  A
C3397      C3398   1.387       .  A
C3397     Br3409   1.920       .  S
C3398      H3401   1.084       .  S
C3400      C3402   1.398       .  A
C3400      C3406   1.400       .  A
C3402      C3403   1.396       .  A
C3402      H3407   1.084       .  S
C3403      C3404   1.418       .  A
C3403     Br3411   1.921       .  S
C3404      C3405   1.410       .  A
C3405      C3406   1.389       .  A
C3405      H3408   1.083       .  S
C3406     Br3412   1.921       .  S
C3413      C3414   1.407       .  A
C3413      C3418   1.403       .  A
C3414      C3415   1.395       .  A
C3414     Br3430   1.919       .  S
C3415      C3416   1.403       .  A
C3415      H3419   1.084       .  S
C3416      C3420   1.478       .  S
C3416      C3417   1.410       .  A
C3417      C3418   1.400       .  A
C3417     Br3429   1.919       .  S
C3418      H3421   1.084       .  S
C3420      C3422   1.405       .  A
C3420      C3426   1.410       .  A
C3422      C3423   1.397       .  A
C3422      H3427   1.083       .  S
C3423      C3424   1.406       .  A
C3423     Br3431   1.921       .  S
C3424      C3425   1.399       .  A
C3425      C3426   1.394       .  A
C3425      H3428   1.084       .  S
C3426     Br3432   1.918       .  S
C3433      C3434   1.414       .  A
C3433      C3438   1.409       .  A
C3434      C3435   1.406       .  A
C3434     Br3450   1.918       .  S
C3435      C3436   1.404       .  A
C3435      H3439   1.083       .  S
C3436      C3440   1.475       .  S
C3436      C3437   1.403       .  A
C3437      C3438   1.390       .  A
C3437     Br3449   1.921       .  S
C3438      H3441   1.083       .  S
C3440      C3442   1.399       .  A
C3440      C3446   1.408       .  A
C3442      C3443   1.398       .  A
C3442      H3447   1.084       .  S
C3443      C3444   1.415       .  A
C3443     Br3451   1.919       .  S
C3444      C3445   1.405       .  A
C3445      C3446   1.400       .  A
C3445      H3448   1.084       .  S
C3446     Br3452   1.918       .  S
C3453      C3454   1.412       .  A
C3453      C3458   1.406       .  A
C3454      C3455   1.408       .  A
C3454     Br3470   1.918       .  S
C3455      C3456   1.407       .  A
C3455      H3459   1.083       .  S
C3456      C3460   1.487       .  S
C3456      C3457   1.406       .  A
C3457      C3458   1.399       .  A
C3457     Br3469   1.918   1_455  S
C3458      H3461   1.084       .  S
C3460      C3462   1.404       .  A
C3460      C3466   1.405       .  A
C3462      C3463   1.406       .  A
C3462      H3467   1.083       .  S
C3463      C3464   1.418       .  A
C3463     Br3471   1.920   1_455  S
C3464      C3465   1.410       .  A
C3465      C3466   1.400       .  A
C3465      H3468   1.083       .  S
C3466     Br3472   1.918       .  S
C3473      C3474   1.406       .  A
C3473      C3478   1.400       .  A
C3474      C3475   1.394   1_455  A
C3474     Br3490   1.919       .  S
C3475      C3476   1.399       .  A
C3475      H3479   1.084       .  S
C3476      C3480   1.467       .  S
C3476      C3477   1.408   1_655  A
C3477      C3478   1.398       .  A
C3477     Br3489   1.918       .  S
C3478      H3481   1.084       .  S
C3480      C3482   1.397       .  A
C3480      C3486   1.406       .  A
C3482      C3483   1.395       .  A
C3482      H3487   1.084       .  S
C3483      C3484   1.413       .  A
C3483     Br3491   1.920       .  S
C3484      C3485   1.404       .  A
C3485      C3486   1.397       .  A
C3485      H3488   1.084       .  S
C3486     Br3492   1.919       .  S
C3493      C3494   1.408       .  A
C3493      C3498   1.401       .  A
C3494      C3495   1.396       .  A
C3494     Br3510   1.920       .  S
C3495      C3496   1.403       .  A
C3495      H3499   1.083       .  S
C3496      C3500   1.476       .  S
C3496      C3497   1.411       .  A
C3497      C3498   1.396       .  A
C3497     Br3509   1.921       .  S
C3498      H3501   1.084       .  S
C3500      C3502   1.404       .  A
C3500      C3506   1.409       .  A
C3502      C3503   1.396       .  A
C3502      H3507   1.083       .  S
C3503      C3504   1.405       .  A
C3503     Br3511   1.918       .  S
C3504      C3505   1.403       .  A
C3505      C3506   1.397       .  A
C3505      H3508   1.084       .  S
C3506     Br3512   1.921       .  S
C3513      C3514   1.417       .  A
C3513      C3518   1.408       .  A
C3514      C3515   1.400       .  A
C3514     Br3530   1.923       .  S
C3515      C3516   1.403       .  A
C3515      H3519   1.083       .  S
C3516      C3520   1.492       .  S
C3516      C3517   1.412       .  A
C3517      C3518   1.402       .  A
C3517     Br3529   1.921       .  S
C3518      H3521   1.083       .  S
C3520      C3522   1.404       .  A
C3520      C3526   1.412       .  A
C3522      C3523   1.402       .  A
C3522      H3527   1.083       .  S
C3523      C3524   1.419       .  A
C3523     Br3531   1.924       .  S
C3524      C3525   1.406       .  A
C3525      C3526   1.399       .  A
C3525      H3528   1.083       .  S
C3526     Br3532   1.921       .  S
C3533      C3534   1.411       .  A
C3533      C3538   1.403       .  A
C3534      C3535   1.401       .  A
C3534     Br3550   1.918       .  S
C3535      C3536   1.403       .  A
C3535      H3539   1.083       .  S
C3536      C3540   1.484       .  S
C3536      C3537   1.411       .  A
C3537      C3538   1.399       .  A
C3537     Br3549   1.920       .  S
C3538      H3541   1.084       .  S
C3540      C3542   1.401       .  A
C3540      C3546   1.413       .  A
C3542      C3543   1.391       .  A
C3542      H3547   1.084       .  S
C3543      C3544   1.408       .  A
C3543     Br3551   1.921       .  S
C3544      C3545   1.404       .  A
C3545      C3546   1.407       .  A
C3545      H3548   1.083       .  S
C3546     Br3552   1.917       .  S
C3553      C3554   1.417       .  A
C3553      C3558   1.411       .  A
C3554      C3555   1.399       .  A
C3554     Br3570   1.920       .  S
C3555      C3556   1.402       .  A
C3555      H3559   1.084       .  S
C3556      C3560   1.474       .  S
C3556      C3557   1.403       .  A
C3557      C3558   1.393       .  A
C3557     Br3569   1.920   1_455  S
C3558      H3561   1.083       .  S
C3560      C3562   1.402       .  A
C3560      C3566   1.407       .  A
C3562      C3563   1.397       .  A
C3562      H3567   1.084       .  S
C3563      C3564   1.410   1_455  A
C3563     Br3571   1.920   1_455  S
C3564      C3565   1.405       .  A
C3565      C3566   1.397   1_655  A
C3565      H3568   1.084       .  S
C3566     Br3572   1.921       .  S
C3573      C3574   1.407   1_455  A
C3573      C3578   1.400       .  A
C3574      C3575   1.393       .  A
C3574     Br3590   1.920       .  S
C3575      C3576   1.399       .  A
C3575      H3579   1.084       .  S
C3576      C3580   1.463       .  S
C3576      C3577   1.406   1_655  A
C3577      C3578   1.395       .  A
C3577     Br3589   1.918       .  S
C3578      H3581   1.084       .  S
C3580      C3582   1.399       .  A
C3580      C3586   1.403       .  A
C3582      C3583   1.395       .  A
C3582      H3587   1.084       .  S
C3583      C3584   1.414       .  A
C3583     Br3591   1.921       .  S
C3584      C3585   1.404       .  A
C3585      C3586   1.392       .  A
C3585      H3588   1.084       .  S
C3586     Br3592   1.919       .  S
C3593      C3594   1.416       .  A
C3593      C3598   1.406       .  A
C3594      C3595   1.401       .  A
C3594     Br3610   1.922       .  S
C3595      C3596   1.401       .  A
C3595      H3599   1.084       .  S
C3596      C3600   1.481       .  S
C3596      C3597   1.407       .  A
C3597      C3598   1.401       .  A
C3597     Br3609   1.919       .  S
C3598      H3601   1.083       .  S
C3600      C3602   1.400       .  A
C3600      C3606   1.407       .  A
C3602      C3603   1.401       .  A
C3602      H3607   1.084       .  S
C3603      C3604   1.418       .  A
C3603     Br3611   1.922       .  S
C3604      C3605   1.408       .  A
C3605      C3606   1.401       .  A
C3605      H3608   1.083       .  S
C3606     Br3612   1.919       .  S
C3613      C3614   1.413       .  A
C3613      C3618   1.405       .  A
C3614      C3615   1.402       .  A
C3614     Br3630   1.921       .  S
C3615      C3616   1.402       .  A
C3615      H3619   1.083       .  S
C3616      C3620   1.483       .  S
C3616      C3617   1.408       .  A
C3617      C3618   1.401       .  A
C3617     Br3629   1.918       .  S
C3618      H3621   1.083       .  S
C3620      C3622   1.403       .  A
C3620      C3626   1.406       .  A
C3622      C3623   1.406       .  A
C3622      H3627   1.083       .  S
C3623      C3624   1.415       .  A
C3623     Br3631   1.919       .  S
C3624      C3625   1.407       .  A
C3625      C3626   1.398       .  A
C3625      H3628   1.084       .  S
C3626     Br3632   1.919       .  S
C3633      C3634   1.416       .  A
C3633      C3638   1.409       .  A
C3634      C3635   1.405       .  A
C3634     Br3650   1.920   1_554  S
C3635      C3636   1.402       .  A
C3635      H3639   1.083   1_554  S
C3636      C3640   1.474       .  S
C3636      C3637   1.404       .  A
C3637      C3638   1.391       .  A
C3637     Br3649   1.922       .  S
C3638      H3641   1.083       .  S
C3640      C3642   1.403       .  A
C3640      C3646   1.404       .  A
C3642      C3643   1.402       .  A
C3642      H3647   1.084       .  S
C3643      C3644   1.412       .  A
C3643     Br3651   1.918       .  S
C3644      C3645   1.405       .  A
C3645      C3646   1.395       .  A
C3645      H3648   1.084       .  S
C3646     Br3652   1.919       .  S
C3653      C3654   1.419       .  A
C3653      C3658   1.416       .  A
C3654      C3655   1.403       .  A
C3654     Br3670   1.919       .  S
C3655      C3656   1.402       .  A
C3655      H3659   1.084       .  S
C3656      C3660   1.477       .  S
C3656      C3657   1.401       .  A
C3657      C3658   1.395       .  A
C3657     Br3669   1.921       .  S
C3658      H3661   1.083       .  S
C3660      C3662   1.402       .  A
C3660      C3666   1.409       .  A
C3662      C3663   1.398       .  A
C3662      H3667   1.084       .  S
C3663      C3664   1.408       .  A
C3663     Br3671   1.919       .  S
C3664      C3665   1.403       .  A
C3665      C3666   1.400       .  A
C3665      H3668   1.084       .  S
C3666     Br3672   1.918       .  S
C3673      C3674   1.407       .  A
C3673      C3678   1.399       .  A
C3674      C3675   1.394       .  A
C3674     Br3690   1.920       .  S
C3675      C3676   1.401       .  A
C3675      H3679   1.084       .  S
C3676      C3680   1.473       .  S
C3676      C3677   1.410       .  A
C3677      C3678   1.397       .  A
C3677     Br3689   1.920       .  S
C3678      H3681   1.084       .  S
C3680      C3682   1.404       .  A
C3680      C3686   1.408       .  A
C3682      C3683   1.396       .  A
C3682      H3687   1.084       .  S
C3683      C3684   1.407       .  A
C3683     Br3691   1.919       .  S
C3684      C3685   1.403       .  A
C3685      C3686   1.394       .  A
C3685      H3688   1.084       .  S
C3686     Br3692   1.921       .  S
C3693      C3694   1.405       .  A
C3693      C3698   1.405       .  A
C3694      C3695   1.397       .  A
C3694     Br3710   1.918       .  S
C3695      C3696   1.405       .  A
C3695      H3699   1.084       .  S
C3696      C3700   1.471       .  S
C3696      C3697   1.405       .  A
C3697      C3698   1.393       .  A
C3697     Br3709   1.919       .  S
C3698      H3701   1.084       .  S
C3700      C3702   1.401       .  A
C3700      C3706   1.406       .  A
C3702      C3703   1.396       .  A
C3702      H3707   1.084       .  S
C3703      C3704   1.410       .  A
C3703     Br3711   1.919       .  S
C3704      C3705   1.404       .  A
C3705      C3706   1.395       .  A
C3705      H3708   1.084       .  S
C3706     Br3712   1.918       .  S
C3713      C3714   1.417       .  A
C3713      C3718   1.410       .  A
C3714      C3715   1.411       .  A
C3714     Br3730   1.918       .  S
C3715      C3716   1.405       .  A
C3715      H3719   1.083       .  S
C3716      C3720   1.489       .  S
C3716      C3717   1.406       .  A
C3717      C3718   1.397       .  A
C3717     Br3729   1.921       .  S
C3718      H3721   1.083       .  S
C3720      C3722   1.403       .  A
C3720      C3726   1.406       .  A
C3722      C3723   1.407       .  A
C3722      H3727   1.083       .  S
C3723      C3724   1.417       .  A
C3723     Br3731   1.913       .  S
C3724      C3725   1.411       .  A
C3725      C3726   1.402       .  A
C3725      H3728   1.084       .  S
C3726     Br3732   1.918       .  S
C3733      C3734   1.417       .  A
C3733      C3738   1.411       .  A
C3734      C3735   1.405   1_556  A
C3734     Br3750   1.920       .  S
C3735      C3736   1.404       .  A
C3735      H3739   1.084       .  S
C3736      C3740   1.482       .  S
C3736      C3737   1.404   1_554  A
C3737      C3738   1.398       .  A
C3737     Br3749   1.919       .  S
C3738      H3741   1.083       .  S
C3740      C3742   1.405       .  A
C3740      C3746   1.405       .  A
C3742      C3743   1.404       .  A
C3742      H3747   1.083       .  S
C3743      C3744   1.412       .  A
C3743     Br3751   1.919       .  S
C3744      C3745   1.409       .  A
C3745      C3746   1.397       .  A
C3745      H3748   1.084       .  S
C3746     Br3752   1.919       .  S
C3753      C3754   1.409       .  A
C3753      C3758   1.405       .  A
C3754      C3755   1.400       .  A
C3754     Br3770   1.919       .  S
C3755      C3756   1.405       .  A
C3755      H3759   1.084       .  S
C3756      C3760   1.474       .  S
C3756      C3757   1.406       .  A
C3757      C3758   1.393       .  A
C3757     Br3769   1.920       .  S
C3758      H3761   1.084       .  S
C3760      C3762   1.402       .  A
C3760      C3766   1.406       .  A
C3762      C3763   1.397       .  A
C3762      H3767   1.084       .  S
C3763      C3764   1.411       .  A
C3763     Br3771   1.919       .  S
C3764      C3765   1.405       .  A
C3765      C3766   1.395       .  A
C3765      H3768   1.084       .  S
C3766     Br3772   1.919       .  S
C3773      C3774   1.407       .  A
C3773      C3778   1.402       .  A
C3774      C3775   1.391       .  A
C3774     Br3790   1.919       .  S
C3775      C3776   1.400       .  A
C3775      H3779   1.084       .  S
C3776      C3780   1.474       .  S
C3776      C3777   1.411       .  A
C3777      C3778   1.401       .  A
C3777     Br3789   1.921       .  S
C3778      H3781   1.083       .  S
C3780      C3782   1.402       .  A
C3780      C3786   1.408       .  A
C3782      C3783   1.396       .  A
C3782      H3787   1.084       .  S
C3783      C3784   1.410       .  A
C3783     Br3791   1.920       .  S
C3784      C3785   1.403       .  A
C3785      C3786   1.394       .  A
C3785      H3788   1.084       .  S
C3786     Br3792   1.920       .  S
C3793      C3794   1.411       .  A
C3793      C3798   1.406       .  A
C3794      C3795   1.397       .  A
C3794     Br3810   1.919       .  S
C3795      C3796   1.400       .  A
C3795      H3799   1.084       .  S
C3796      C3800   1.480       .  S
C3796      C3797   1.408       .  A
C3797      C3798   1.406       .  A
C3797     Br3809   1.917       .  S
C3798      H3801   1.083       .  S
C3800      C3802   1.401       .  A
C3800      C3806   1.407       .  A
C3802      C3803   1.401       .  A
C3802      H3807   1.083       .  S
C3803      C3804   1.413       .  A
C3803     Br3811   1.918       .  S
C3804      C3805   1.406       .  A
C3805      C3806   1.402       .  A
C3805      H3808   1.084       .  S
C3806     Br3812   1.918       .  S
C3813      C3814   1.412       .  A
C3813      C3818   1.407       .  A
C3814      C3815   1.406       .  A
C3814     Br3830   1.918       .  S
C3815      C3816   1.405       .  A
C3815      H3819   1.083       .  S
C3816      C3820   1.483       .  S
C3816      C3817   1.405       .  A
C3817      C3818   1.398       .  A
C3817     Br3829   1.919       .  S
C3818      H3821   1.084       .  S
C3820      C3822   1.405       .  A
C3820      C3826   1.405       .  A
C3822      C3823   1.409       .  A
C3822      H3827   1.083       .  S
C3823      C3824   1.416       .  A
C3823     Br3831   1.919       .  S
C3824      C3825   1.409       .  A
C3825      C3826   1.395       .  A
C3825      H3828   1.084       .  S
C3826     Br3832   1.920       .  S
C3833      C3834   1.412       .  A
C3833      C3838   1.403       .  A
C3834      C3835   1.401       .  A
C3834     Br3850   1.920       .  S
C3835      C3836   1.403       .  A
C3835      H3839   1.083       .  S
C3836      C3840   1.483       .  S
C3836      C3837   1.409       .  A
C3837      C3838   1.401       .  A
C3837     Br3849   1.917       .  S
C3838      H3841   1.083       .  S
C3840      C3842   1.405       .  A
C3840      C3846   1.406       .  A
C3842      C3843   1.405       .  A
C3842      H3847   1.083       .  S
C3843      C3844   1.413       .  A
C3843     Br3851   1.919       .  S
C3844      C3845   1.406       .  A
C3845      C3846   1.397       .  A
C3845      H3848   1.084       .  S
C3846     Br3852   1.918       .  S
C3853      C3854   1.411       .  A
C3853      C3858   1.405       .  A
C3854      C3855   1.396       .  A
C3854     Br3870   1.920       .  S
C3855      C3856   1.401       .  A
C3855      H3859   1.084       .  S
C3856      C3860   1.470       .  S
C3856      C3857   1.405       .  A
C3857      C3858   1.395       .  A
C3857     Br3869   1.918       .  S
C3858      H3861   1.084       .  S
C3860      C3862   1.399       .  A
C3860      C3866   1.406       .  A
C3862      C3863   1.395       .  A
C3862      H3867   1.084       .  S
C3863      C3864   1.408       .  A
C3863     Br3871   1.915       .  S
C3864      C3865   1.406       .  A
C3865      C3866   1.399       .  A
C3865      H3868   1.084       .  S
C3866     Br3872   1.920       .  S
C3873      C3874   1.405       .  A
C3873      C3878   1.399       .  A
C3874      C3875   1.389       .  A
C3874     Br3890   1.920       .  S
C3875      C3876   1.398       .  A
C3875      H3879   1.084       .  S
C3876      C3880   1.458       .  S
C3876      C3877   1.406       .  A
C3877      C3878   1.395       .  A
C3877     Br3889   1.919       .  S
C3878      H3881   1.084       .  S
C3880      C3882   1.401       .  A
C3880      C3886   1.403       .  A
C3882      C3883   1.394       .  A
C3882      H3887   1.084       .  S
C3883      C3884   1.407       .  A
C3883     Br3891   1.920       .  S
C3884      C3885   1.403       .  A
C3885      C3886   1.388       .  A
C3885      H3888   1.084       .  S
C3886     Br3892   1.920       .  S
C3893      C3894   1.415       .  A
C3893      C3898   1.409       .  A
C3894      C3895   1.402       .  A
C3894     Br3910   1.918       .  S
C3895      C3896   1.402       .  A
C3895      H3899   1.084       .  S
C3896      C3900   1.490       .  S
C3896      C3897   1.410       .  A
C3897      C3898   1.406       .  A
C3897     Br3909   1.919       .  S
C3898      H3901   1.083       .  S
C3900      C3902   1.402       .  A
C3900      C3906   1.409       .  A
C3902      C3903   1.402       .  A
C3902      H3907   1.083       .  S
C3903      C3904   1.418       .  A
C3903     Br3911   1.922       .  S
C3904      C3905   1.410       .  A
C3905      C3906   1.403       .  A
C3905      H3908   1.083       .  S
C3906     Br3912   1.919       .  S
C3913      C3914   1.415       .  A
C3913      C3918   1.409       .  A
C3914      C3915   1.407       .  A
C3914     Br3930   1.918       .  S
C3915      C3916   1.404       .  A
C3915      H3919   1.083       .  S
C3916      C3920   1.476       .  S
C3916      C3917   1.404       .  A
C3917      C3918   1.391       .  A
C3917     Br3929   1.922       .  S
C3918      H3921   1.083       .  S
C3920      C3922   1.402       .  A
C3920      C3926   1.406       .  A
C3922      C3923   1.399       .  A
C3922      H3927   1.084       .  S
C3923      C3924   1.410       .  A
C3923     Br3931   1.917       .  S
C3924      C3925   1.406       .  A
C3925      C3926   1.400       .  A
C3925      H3928   1.084       .  S
C3926     Br3932   1.918       .  S
C3933      C3934   1.414       .  A
C3933      C3938   1.409       .  A
C3934      C3935   1.405       .  A
C3934     Br3950   1.920       .  S
C3935      C3936   1.404       .  A
C3935      H3939   1.083       .  S
C3936      C3940   1.482       .  S
C3936      C3937   1.404       .  A
C3937      C3938   1.398       .  A
C3937     Br3949   1.919       .  S
C3938      H3941   1.083       .  S
C3940      C3942   1.404       .  A
C3940      C3946   1.406       .  A
C3942      C3943   1.405       .  A
C3942      H3947   1.083       .  S
C3943      C3944   1.410       .  A
C3943     Br3951   1.915       .  S
C3944      C3945   1.404       .  A
C3945      C3946   1.398       .  A
C3945      H3948   1.084       .  S
C3946     Br3952   1.917       .  S
C3953      C3954   1.419       .  A
C3953      C3958   1.410       .  A
C3954      C3955   1.393       .  A
C3954     Br3970   1.920       .  S
C3955      C3956   1.396       .  A
C3955      H3959   1.084       .  S
C3956      C3960   1.462       .  S
C3956      C3957   1.401       .  A
C3957      C3958   1.392       .  A
C3957     Br3969   1.919       .  S
C3958      H3961   1.083       .  S
C3960      C3962   1.400       .  A
C3960      C3966   1.403       .  A
C3962      C3963   1.395       .  A
C3962      H3967   1.084       .  S
C3963      C3964   1.411       .  A
C3963     Br3971   1.920       .  S
C3964      C3965   1.407       .  A
C3965      C3966   1.391       .  A
C3965      H3968   1.084       .  S
C3966     Br3972   1.921       .  S
C3973      C3974   1.417       .  A
C3973      C3978   1.406       .  A
C3974      C3975   1.394       .  A
C3974     Br3990   1.922       .  S
C3975      C3976   1.398       .  A
C3975      H3979   1.084       .  S
C3976      C3980   1.465       .  S
C3976      C3977   1.403       .  A
C3977      C3978   1.394       .  A
C3977     Br3989   1.917       .  S
C3978      H3981   1.083       .  S
C3980      C3982   1.396       .  A
C3980      C3986   1.408       .  A
C3982      C3983   1.390       .  A
C3982      H3987   1.084       .  S
C3983      C3984   1.410       .  A
C3983     Br3991   1.920       .  S
C3984      C3985   1.404       .  A
C3985      C3986   1.400       .  A
C3985      H3988   1.084       .  S
C3986     Br3992   1.919       .  S
C3993      C3994   1.417       .  A
C3993      C3998   1.409       .  A
C3994      C3995   1.402       .  A
C3994     Br4010   1.922       .  S
C3995      C3996   1.401       .  A
C3995      H3999   1.084       .  S
C3996      C4000   1.482       .  S
C3996      C3997   1.406       .  A
C3997      C3998   1.402       .  A
C3997     Br4009   1.918       .  S
C3998      H4001   1.083       .  S
C4000      C4002   1.400       .  A
C4000      C4006   1.406       .  A
C4002      C4003   1.401       .  A
C4002      H4007   1.084       .  S
C4003      C4004   1.418       .  A
C4003     Br4011   1.920       .  S
C4004      C4005   1.411       .  A
C4005      C4006   1.402       .  A
C4005      H4008   1.083       .  S
C4006     Br4012   1.918       .  S
C4013      C4014   1.412       .  A
C4013      C4018   1.404       .  A
C4014      C4015   1.397       .  A
C4014     Br4030   1.921       .  S
C4015      C4016   1.400       .  A
C4015      H4019   1.084       .  S
C4016      C4020   1.478       .  S
C4016      C4017   1.408       .  A
C4017      C4018   1.403       .  A
C4017     Br4029   1.917       .  S
C4018      H4021   1.083       .  S
C4020      C4022   1.404       .  A
C4020      C4026   1.406       .  A
C4022      C4023   1.402       .  A
C4022      H4027   1.083       .  S
C4023      C4024   1.412       .  A
C4023     Br4031   1.921       .  S
C4024      C4025   1.404       .  A
C4025      C4026   1.398       .  A
C4025      H4028   1.084       .  S
C4026     Br4032   1.918       .  S
