geometry optimzed in LAMMPS
_audit_creation_date              2020-12-01 
_audit_creation_method            'lammps2cif' 
_symmetry_space_group_name_H-M    'P1' 
_symmetry_Int_Tables_number       1 
_symmetry_cell_setting            triclinic 
loop_ 
_symmetry_equiv_pos_as_xyz 
  x,y,z 
_cell_length_a                    41.49889911 
_cell_length_b                    32.17429039297576 
_cell_length_c                    42.89163296578782 
_cell_angle_alpha                 90.50890370215313 
_cell_angle_beta                  89.73103076245886 
_cell_angle_gamma                 89.48242950902409 
loop_ 
_atom_site_label 
_atom_site_type_symbol 
_atom_site_fract_x 
_atom_site_fract_y 
_atom_site_fract_z 
_atom_site_charge 
O1          O  0.47740180  0.67216404  0.46971085    -0.86200
O2          O  0.46888386  0.72810866  0.51881877    -0.83300
C3          C  0.46851953  0.76158678  0.50373033     0.97300
O4          O  0.44660410  0.76815428  0.48414968    -0.83300
O5          O  0.39051865  0.75838762  0.45020122    -0.85900
C6          C  0.39486614  0.73907523  0.42489376     1.01800
O7          O  0.40198405  0.70112026  0.42441763    -0.78700
O8          O  0.44231617  0.63854395  0.44056553    -0.78900
C9          C  0.47073638  0.65270073  0.44481373     1.01700
O10         O  0.44186432  0.61268756  0.00171638    -0.86200
O11         O  0.42278498  0.67407555  0.04565684    -0.83300
C12         C  0.41122118  0.70846939  0.05531944     0.97300
O13         O  0.41301989  0.74029661  0.03845921    -0.83300
O14         O  0.36039705  0.72543078  0.50408807    -0.85900
C15         C  0.34230179  0.70023125  0.49031607     1.01700
O16         O  0.35299626  0.67650703  0.46870049    -0.78700
O17         O  0.39260157  0.61231352  0.48598068    -0.78900
C18         C  0.41620181  0.59308649  0.49722089     1.01700
Cr19       Cr  0.45022110  0.67335409  0.00737031     1.93700
Cr20       Cr  0.40371020  0.74379280  0.49331445     1.93200
Cr21       Cr  0.39886801  0.65969618  0.45725835     1.39100
O22         O  0.41726916  0.69220112  0.48551923    -1.24000
O23         O  0.47234070  0.33575837  0.04765818    -0.86200
O24         O  0.46924299  0.28388887  0.99480340    -0.83300
C25         C  0.47101602  0.25094802  0.01006104     0.97300
O26         O  0.44937857  0.24282402  0.02936428    -0.83300
O27         O  0.39374232  0.24562927  0.06312070    -0.85900
C28         C  0.38817877  0.26722116  0.08721524     1.01800
O29         O  0.38827531  0.30633746  0.08623071    -0.78700
O30         O  0.43326498  0.36657406  0.07520705    -0.78900
C31         C  0.46274231  0.35387004  0.07255263     1.01700
O32         O  0.43987793  0.39708760  0.01555002    -0.86200
O33         O  0.42522255  0.33702656  0.46899208    -0.83300
C34         C  0.41606900  0.30278254  0.45728877     0.97300
O35         O  0.41469623  0.26973571  0.47354044    -0.83300
O36         O  0.36065855  0.27374237  0.00950415    -0.85900
C37         C  0.34104434  0.30223477  0.01611829     1.01700
O38         O  0.34861488  0.33187067  0.03440629    -0.78700
O39         O  0.38877243  0.39541586  0.02343556    -0.78900
C40         C  0.41323574  0.41544890  0.01597348     1.01700
Cr41       Cr  0.44827312  0.33687137  0.00824591     1.93700
Cr42       Cr  0.40521808  0.26245112  0.01970822     1.93200
Cr43       Cr  0.39162592  0.34765506  0.05291366     1.39100
O44         O  0.41447459  0.31535337  0.02752061    -1.24000
O45         O  0.22608942  0.16159735  0.45283884    -0.86200
O46         O  0.21967073  0.21976561  0.49974525    -0.83300
C47         C  0.21777855  0.25236539  0.48364735     0.97300
O48         O  0.19311811  0.25992146  0.46749842    -0.83300
O49         O  0.13377602  0.24636548  0.43756643    -0.85900
C50         C  0.13875885  0.22869452  0.41154085     1.01800
O51         O  0.15244012  0.19365919  0.41055394    -0.78700
O52         O  0.18970139  0.12733011  0.42604606    -0.78900
C53         C  0.21800730  0.14176668  0.42855410     1.01700
O54         O  0.19064723  0.10346027  0.98817134    -0.86200
O55         O  0.17656425  0.16607599  0.03189173    -0.83300
C56         C  0.16802866  0.20126899  0.04251251     0.97300
O57         O  0.16476373  0.23194565  0.02447313    -0.83300
O58         O  0.11104112  0.21149640  0.49432576    -0.85900
C59         C  0.09255524  0.18983327  0.47787897     1.01700
O60         O  0.10287124  0.17005819  0.45411351    -0.78700
O61         O  0.14061631  0.10436985  0.47223137    -0.78900
C62         C  0.16380677  0.08545880  0.48463553     1.01700
Cr63       Cr  0.20063517  0.16379923  0.99156969     1.93700
Cr64       Cr  0.15199880  0.23369042  0.48010615     1.93200
Cr65       Cr  0.14783378  0.15121905  0.44301675     1.39100
O66         O  0.16663925  0.18291005  0.47141206    -1.24000
O67         O  0.21552094  0.86558638  0.06271568    -0.86200
O68         O  0.22333420  0.78773652  0.03888495    -0.83300
C69         C  0.21793698  0.75191045  0.02851434     0.97300
O70         O  0.18944232  0.74123761  0.02219747    -0.83300
O71         O  0.15233095  0.75078371  0.07760149    -0.85900
C72         C  0.13528612  0.76780517  0.09869542     1.01800
O73         O  0.12407122  0.80418458  0.09511209    -0.78700
O74         O  0.17996939  0.84925269  0.09836845    -0.78900
C75         C  0.20829814  0.85958246  0.09120171     1.01700
O76         O  0.17756162  0.88595631  0.00748551    -0.86200
O77         O  0.18918066  0.80912217  0.48304122    -0.83300
C78         C  0.16324495  0.79388430  0.47260877     0.97300
O79         O  0.14053414  0.78423353  0.49048033    -0.83300
O80         O  0.10097734  0.78606083  0.04112914    -0.85900
C81         C  0.08805031  0.82146710  0.03737931     1.01700
O82         O  0.10346207  0.85418926  0.04335532    -0.78700
O83         O  0.15596853  0.90583530  0.05177459    -0.78900
C84         C  0.16558882  0.91402745  0.02450274     1.01700
Cr85       Cr  0.19851299  0.83598959  0.02432581     1.93700
Cr86       Cr  0.14706748  0.76924252  0.03389902     1.93200
Cr87       Cr  0.14241283  0.85120198  0.07007067     1.39100
O88         O  0.16276983  0.81891990  0.04260012    -1.24000
O89         O  0.05417137  0.36578268  0.19935586    -0.86200
O90         O  0.04234767  0.29079271  0.22429028    -0.83300
C91         C  0.04711914  0.25244961  0.22729257     0.97300
O92         O  0.07510909  0.23819003  0.23136885    -0.83300
O93         O  0.11637491  0.24954785  0.18139818    -0.85900
C94         C  0.13646739  0.26580658  0.16329445     1.01800
O95         O  0.14717101  0.30128499  0.16977574    -0.78700
O96         O  0.09118547  0.34781968  0.16486810    -0.78900
C97         C  0.06247179  0.35883197  0.17105538     1.01700
O98         O  0.09176346  0.38669630  0.25573078    -0.86200
O99         O  0.07806378  0.30961474  0.28059992    -0.83300
C100        C  0.10113819  0.28663903  0.28988863     0.97300
O101        O  0.12180647  0.27206740  0.27121539    -0.83300
O102        O  0.16517110  0.27833168  0.22477605    -0.85900
C103        C  0.17906857  0.31252970  0.23029782     1.01700
O104        O  0.16543186  0.34688521  0.22373342    -0.78700
O105        O  0.11378112  0.40297984  0.21166035    -0.78900
C106        C  0.10343479  0.41383683  0.23811491     1.01700
Cr107      Cr  0.06969169  0.33667816  0.23865282     1.93700
Cr108      Cr  0.11832683  0.26399210  0.22641103     1.93200
Cr109      Cr  0.12757630  0.34751340  0.19474175     1.39100
O110        O  0.10502129  0.31603294  0.22043265    -1.24000
O111        O  0.05639670  0.64114379  0.31522570    -0.86200
O112        O  0.04696009  0.71733438  0.28949832    -0.83300
C113        C  0.05296980  0.75371037  0.28097146     0.97300
O114        O  0.08167200  0.76453123  0.27616544    -0.83300
O115        O  0.12021548  0.75254632  0.32991128    -0.85900
C116        C  0.13769450  0.73370171  0.34938224     1.01800
O117        O  0.15082784  0.69977113  0.34179597    -0.74700
O118        O  0.09458096  0.65612731  0.34886538    -0.78900
C119        C  0.06569454  0.64636286  0.34324229     1.01700
O120        O  0.09249372  0.61551113  0.25932741    -0.86200
O121        O  0.08234150  0.69312243  0.23298591    -0.83300
C122        C  0.10765283  0.71049844  0.22254274     0.97300
O123        O  0.12914085  0.72324231  0.24083485    -0.83300
O124        O  0.17044325  0.71912555  0.28889217    -0.85900
C125        C  0.18393507  0.68399248  0.28447152     1.01700
O126        O  0.16855652  0.65072416  0.28933916    -0.78700
O127        O  0.11544361  0.59865865  0.30294131    -0.78900
C128        C  0.10394510  0.58810267  0.27706361     1.01700
Cr129      Cr  0.07252941  0.66807763  0.27549849     1.93700
Cr130      Cr  0.12395670  0.73608258  0.28499732     1.93200
Cr131      Cr  0.13063096  0.65356359  0.31847640     1.39100
O132        O  0.10881389  0.68573915  0.29256216    -1.24000
O133        O  0.30843228  0.13664275  0.30251962    -0.86200
O134        O  0.29589399  0.21084006  0.27431047    -0.83300
C135        C  0.30063229  0.24759381  0.26575007     0.97300
O136        O  0.32890907  0.26050434  0.26143111    -0.83300
O137        O  0.36549947  0.25652430  0.31692848    -0.85900
C138        C  0.38481543  0.24235661  0.33700361     1.01800
O139        O  0.39682315  0.20629137  0.33344355    -0.78700
O140        O  0.34307247  0.15744590  0.33822883    -0.78900
C141        C  0.31559730  0.14365580  0.33103522     1.01700
O142        O  0.34932061  0.11345199  0.24887482    -0.86200
O143        O  0.33492198  0.18894266  0.22028654    -0.83300
C144        C  0.36016150  0.20784211  0.21146686     0.97300
O145        O  0.38080481  0.21876338  0.23086165    -0.83300
O146        O  0.41803787  0.22301048  0.28072026    -0.85900
C147        C  0.43145070  0.18917044  0.27276475     1.01700
O148        O  0.41892063  0.15521871  0.28097520    -0.78700
O149        O  0.36868011  0.10043105  0.29469432    -0.78900
C150        C  0.36082857  0.08788284  0.26801677     1.01700
Cr151      Cr  0.32482192  0.16384823  0.26292595     1.93700
Cr152      Cr  0.37186547  0.23617464  0.27335068     1.93200
Cr153      Cr  0.38050870  0.15687440  0.30975857     1.39100
O154        O  0.35835773  0.18582946  0.28221688    -1.24000
O155        O  0.30446692  0.85803452  0.21311553    -0.86200
O156        O  0.29816163  0.78384552  0.24277914    -0.83300
C157        C  0.30501584  0.74856152  0.25335075     0.97300
O158        O  0.33391561  0.73928007  0.25939338    -0.83300
O159        O  0.36473862  0.73955306  0.20146494    -0.85900
C160        C  0.37870454  0.75433670  0.17797250     1.01800
O161        O  0.39227354  0.78940820  0.17919043    -0.78700
O162        O  0.33824546  0.83907574  0.17565239    -0.78900
C163        C  0.31063715  0.85187704  0.18428902     1.01700
O164        O  0.34643386  0.88644496  0.26313627    -0.86200
O165        O  0.33868226  0.81216177  0.29442582    -0.83300
C166        C  0.36630633  0.79868317  0.30261557     0.97300
O167        O  0.38643406  0.78710840  0.28243999    -0.83300
O168        O  0.42020086  0.77631133  0.22997012    -0.85900
C169        C  0.43377264  0.81093897  0.23355344     1.01700
O170        O  0.41861984  0.84397635  0.22677236    -0.78700
O171        O  0.36590103  0.89757776  0.21651672    -0.78900
C172        C  0.35700689  0.91096386  0.24285032     1.01700
Cr173      Cr  0.32453850  0.83365433  0.25192984     1.93700
Cr174      Cr  0.37480011  0.76406486  0.24243739     1.93200
Cr175      Cr  0.37763428  0.84059310  0.20180315     1.39100
O176        O  0.35844568  0.81288499  0.23185249    -1.24000
C177        C  0.34525332  0.02727730  0.23484523    -0.10000
C178        C  0.36261489  0.04261277  0.26049260     0.06200
C179        C  0.37903070  0.01370856  0.27976813    -0.03800
C180        C  0.37603367  0.97094012  0.27428619    -0.08200
C181        C  0.35823610  0.95602291  0.24903826     0.05300
C182        C  0.34324126  0.98456040  0.22887104    -0.03300
Br183      Br  0.31826791  0.96679849  0.19366648    -0.03000
H184        H  0.33252741  0.04847095  0.21967999     0.09200
H185        H  0.38848659  0.94920517  0.28926809     0.07200
Br186      Br  0.40757517  0.02964881  0.31288160    -0.03400
C187        C  0.25900412  0.70299334  0.23810190    -0.10000
C188        C  0.27854726  0.72007706  0.26153707     0.06200
C189        C  0.26967539  0.71458481  0.29295945    -0.03800
C190        C  0.23963418  0.69778201  0.30033814    -0.08200
C191        C  0.21870032  0.68419704  0.27687739     0.05300
C192        C  0.22967973  0.68388877  0.24575040    -0.03300
Br193      Br  0.20507115  0.65850304  0.21325851    -0.03000
H194        H  0.26602702  0.70568950  0.21385082     0.09200
H195        H  0.23161096  0.69809639  0.32441267     0.07200
Br196      Br  0.29606545  0.73360325  0.32665887    -0.03400
C197        C  0.47078321  0.80553179  0.27858240    -0.10000
C198        C  0.46689131  0.81065713  0.24622820     0.06200
C199        C  0.49360737  0.80372202  0.22649957    -0.03800
C200        C  0.02298397  0.78986526  0.23958925    -0.08200
C201        C  0.02589184  0.78108575  0.27147872     0.05300
C202        C  0.00015513  0.79154560  0.29160872    -0.03300
Br203      Br  0.50318357  0.78211916  0.33494527    -0.03000
H204        H  0.45049545  0.81054920  0.29407491     0.09200
H205        H  0.04262013  0.78220765  0.22389839     0.07200
Br206      Br  0.99018664  0.80811322  0.18276509    -0.03400
C207        C  0.23802651  0.31014065  0.22151865    -0.10000
C208        C  0.21221860  0.30995742  0.24271163     0.06200
C209        C  0.21768906  0.29465642  0.27300231    -0.03800
C210        C  0.24754642  0.27735472  0.28089069    -0.08200
C211        C  0.27251210  0.27454588  0.25896021     0.05300
C212        C  0.26786805  0.29219249  0.22923427    -0.03300
Br213      Br  0.29899519  0.28597466  0.19640470    -0.03000
H214        H  0.23404726  0.32048462  0.19787536     0.09200
H215        H  0.25068400  0.26385965  0.30375342     0.07200
Br216      Br  0.18466720  0.29332229  0.30404251    -0.03400
C217        C  0.01959336  0.19167723  0.25066296    -0.10000
C218        C  0.01886638  0.22497698  0.22955578     0.06200
C219        C  0.98915002  0.23674891  0.21648264    -0.03800
C220        C  0.45999328  0.22103104  0.22895749    -0.08200
C221        C  0.46070292  0.19197849  0.25320760     0.05300
C222        C  0.49039142  0.17403185  0.26147892    -0.03300
Br223      Br  0.49327263  0.13058789  0.29157341    -0.03000
H224        H  0.04224781  0.18104129  0.26007952     0.09200
H225        H  0.43739555  0.23383335  0.22108352     0.07200
Br226      Br  0.98543981  0.27656479  0.18350985    -0.03400
C227        C  0.10149420  0.46919090  0.27961907    -0.10000
C228        C  0.10409734  0.45862498  0.24781382     0.06200
C229        C  0.10658301  0.49140128  0.22598200    -0.03800
C230        C  0.10593737  0.53290224  0.23611580    -0.08200
C231        C  0.10382765  0.54337113  0.26781635     0.05300
C232        C  0.10176984  0.51080172  0.28978974    -0.03300
Br233      Br  0.09815675  0.52042205  0.33400158    -0.03000
H234        H  0.09952198  0.44490225  0.29682185     0.09200
H235        H  0.10767637  0.55729995  0.21896100     0.07200
Br236      Br  0.11036929  0.48300565  0.18169993    -0.03400
C237        C  0.26598351  0.86957042  0.10725410    -0.10000
C238        C  0.23364662  0.86313452  0.11604883     0.06200
C239        C  0.22698869  0.85733788  0.14824540    -0.03800
C240        C  0.25229322  0.85471348  0.16979380    -0.08200
C241        C  0.28466807  0.85877244  0.16065077     0.05300
C242        C  0.29117985  0.86797788  0.12905275    -0.03300
Br243      Br  0.33366844  0.88075759  0.11426718    -0.03000
H244        H  0.27195160  0.87535823  0.08306615     0.09200
H245        H  0.24650452  0.84864477  0.19397948     0.07200
Br246      Br  0.18418644  0.85331921  0.16533660    -0.03400
C247        C  0.15679623  0.73816058  0.43504888    -0.10000
C248        C  0.16029885  0.78073815  0.44013492     0.06200
C249        C  0.15653272  0.80852044  0.41529869    -0.03800
C250        C  0.14811111  0.79315077  0.38573074    -0.08200
C251        C  0.14432549  0.75021158  0.38073618     0.05300
C252        C  0.14930308  0.72258002  0.40581262    -0.03300
Br253      Br  0.14546709  0.66305219  0.40295499    -0.03000
H254        H  0.15945892  0.71676539  0.45427930     0.09200
H255        H  0.14511542  0.81455929  0.36660070     0.07200
Br256      Br  0.16194481  0.86713934  0.42104927    -0.03400
C257        C  0.09609131  0.73815801  0.13663767    -0.10000
C258        C  0.12818915  0.74606141  0.12795379     0.06200
C259        C  0.15289060  0.73787999  0.14917207    -0.03800
C260        C  0.14528029  0.72524337  0.17922329    -0.08200
C261        C  0.11327266  0.71803433  0.18870467     0.05300
C262        C  0.08850138  0.72313784  0.16649579    -0.03300
Br263      Br  0.04403797  0.71275907  0.17569986    -0.03000
H264        H  0.07683114  0.74439096  0.12030210     0.09200
H265        H  0.16470676  0.72285488  0.19569873     0.07200
Br266      Br  0.19736282  0.74698120  0.13932533    -0.03400
C267        C  0.19047562  0.01641945  0.98955874    -0.10000
C268        C  0.16233673  0.04061877  0.99296085     0.06200
C269        C  0.13443666  0.02204252  0.00547488    -0.03800
C270        C  0.13586738  0.98075020  0.01585540    -0.08200
C271        C  0.16434849  0.95706191  0.01287810     0.05300
C272        C  0.19160701  0.97508110  0.99892651    -0.03300
Br273      Br  0.23187742  0.94587042  0.99362360    -0.03000
H274        H  0.21199871  0.02985147  0.97957140     0.09200
H275        H  0.11462022  0.96698678  0.02611435     0.07200
Br276      Br  0.09430965  0.05158143  0.01018618    -0.03400
C277        C  0.13153472  0.20921692  0.12310979    -0.10000
C278        C  0.14824746  0.24389428  0.13481881     0.06200
C279        C  0.17553411  0.25808752  0.11813028    -0.03800
C280        C  0.18267890  0.24138765  0.08885440    -0.08200
C281        C  0.16433271  0.20933049  0.07608938     0.05300
C282        C  0.13974678  0.19150278  0.09408424    -0.03300
Br283      Br  0.11571687  0.14486416  0.07918634    -0.03000
H284        H  0.11132176  0.19673940  0.13596398     0.09200
H285        H  0.20237544  0.25428267  0.07548036     0.07200
Br286      Br  0.20486530  0.29954402  0.13334352    -0.03400
C287        C  0.10956167  0.30233797  0.34689972    -0.10000
C288        C  0.10440225  0.27346499  0.32269739     0.06200
C289        C  0.10856374  0.23084517  0.32887766    -0.03800
C290        C  0.11959394  0.21785028  0.35777040    -0.08200
C291        C  0.12636641  0.24630956  0.38179193     0.05300
C292        C  0.12011119  0.28908770  0.37648857    -0.03300
Br293      Br  0.12685297  0.33092560  0.40782843    -0.03000
H294        H  0.10684669  0.33528469  0.34239052     0.09200
H295        H  0.12273741  0.18479864  0.36141239     0.07200
Br296      Br  0.09976123  0.18838453  0.29845558    -0.03400
C297        C  0.25823907  0.13537518  0.34819323    -0.10000
C298        C  0.29108625  0.13693443  0.35613071     0.06200
C299        C  0.29931688  0.13521291  0.38812860    -0.03800
C300        C  0.27510219  0.13529142  0.41098753    -0.08200
C301        C  0.24228595  0.13587638  0.40310159     0.05300
C302        C  0.23399321  0.13460113  0.37113703    -0.03300
Br303      Br  0.19023983  0.13510938  0.35678741    -0.03000
H304        H  0.25117239  0.13639314  0.32393019     0.09200
H305        H  0.28208502  0.13531148  0.43529199     0.07200
Br306      Br  0.34293576  0.13166267  0.40284614    -0.03400
C307        C  0.05032389  0.19339694  0.01734350    -0.10000
C308        C  0.05820273  0.19115063  0.48600547     0.06200
C309        C  0.03450359  0.19761308  0.46312020    -0.03800
C310        C  0.50459953  0.21114529  0.47223836    -0.08200
C311        C  0.49773995  0.22239829  0.00351662     0.05300
C312        C  0.02049636  0.20959352  0.02654647    -0.03300
Br313      Br  0.01404816  0.22313994  0.06982107    -0.03000
H314        H  0.06856056  0.18828914  0.03503469     0.09200
H315        H  0.48705659  0.21940334  0.45453564     0.07200
Br316      Br  0.04329044  0.19378710  0.41913553    -0.03400
C317        C  0.28189359  0.31822785  0.01670415    -0.10000
C318        C  0.30851568  0.29888549  0.00207308     0.06200
C319        C  0.30294072  0.27266542  0.97568466    -0.03800
C320        C  0.27210953  0.26384568  0.46648940    -0.08200
C321        C  0.24601831  0.27907728  0.48368818     0.05300
C322        C  0.25041230  0.30780567  0.00798381    -0.03300
Br323      Br  0.21514786  0.32893326  0.03258616    -0.03000
H324        H  0.28541436  0.33845095  0.03668791     0.09200
H325        H  0.26806060  0.24109072  0.44811751     0.07200
Br326      Br  0.33566463  0.23967889  0.45327465    -0.03400
C327        C  0.02099730  0.34981356  0.09120191    -0.10000
C328        C  0.48741590  0.36015803  0.09806269     0.06200
C329        C  0.48010190  0.37231842  0.12917269    -0.03800
C330        C  0.00574700  0.37353879  0.15197021    -0.08200
C331        C  0.03802545  0.36224830  0.14510066     0.05300
C332        C  0.04537357  0.35112793  0.11373463    -0.03300
Br333      Br  0.08781080  0.33585353  0.09900834    -0.03000
H334        H  0.02781018  0.34045803  0.06774216     0.09200
H335        H  0.49799928  0.38191576  0.17570376     0.07200
Br336      Br  0.43711008  0.38562795  0.14279036    -0.03400
C337        C  0.38957956  0.27201549  0.14424377    -0.10000
C338        C  0.38188547  0.24797322  0.11804151     0.06200
C339        C  0.36618359  0.20947078  0.12259326    -0.03800
C340        C  0.35852133  0.19640272  0.15306664    -0.08200
C341        C  0.36601273  0.22135343  0.17903875     0.05300
C342        C  0.38124346  0.25997432  0.17407407    -0.03300
Br343      Br  0.38887730  0.30073523  0.20642947    -0.03000
H344        H  0.40142762  0.30168893  0.14152800     0.09200
H345        H  0.34678942  0.16678721  0.15645316     0.07200
Br346      Br  0.35306095  0.17467459  0.08851848    -0.03400
C347        C  0.43354026  0.27707868  0.40619423    -0.10000
C348        C  0.41039926  0.29881254  0.42368629     0.06200
C349        C  0.38069401  0.30932563  0.40992688    -0.03800
C350        C  0.37293717  0.29287408  0.38047384    -0.08200
C351        C  0.39507893  0.26724753  0.36429850     0.05300
C352        C  0.42650847  0.26227967  0.37643436    -0.03300
Br353      Br  0.46116825  0.23586192  0.35365066    -0.03000
H354        H  0.45689835  0.27020992  0.41624476     0.09200
H355        H  0.34910035  0.29827181  0.37104714     0.07200
Br356      Br  0.34959907  0.34379899  0.43118513    -0.03400
C357        C  0.49010277  0.62267262  0.39332289    -0.10000
C358        C  0.49633629  0.64705898  0.42012027     0.06200
C359        C  0.02789294  0.66682907  0.42278490    -0.03800
C360        C  0.04956095  0.66482146  0.39768395    -0.08200
C361        C  0.04251086  0.64311062  0.37001631     0.05300
C362        C  0.01319105  0.62108958  0.36864274    -0.03300
Br363      Br  0.50132902  0.58448110  0.33379979    -0.03000
H364        H  0.46769988  0.60580471  0.39160165     0.09200
H365        H  0.07195689  0.68161124  0.39964899     0.07200
Br366      Br  0.04264663  0.69759617  0.45859009    -0.03400
C367        C  0.01609612  0.80191216  0.98759236    -0.10000
C368        C  0.49361060  0.79227475  0.51056023     0.06200
C369        C  0.49933624  0.80578682  0.04046060    -0.03800
C370        C  0.03025184  0.81901409  0.05010299    -0.08200
C371        C  0.05431740  0.82292316  0.02737895     0.05300
C372        C  0.04643960  0.81709549  0.99573692    -0.03300
Br373      Br  0.07734488  0.82535237  0.96316803    -0.03000
H374        H  0.01185531  0.79125336  0.46224972     0.09200
H375        H  0.03590509  0.82403445  0.07448382     0.07200
Br376      Br  0.46714137  0.80183561  0.07255238    -0.03400
C377        C  0.25134352  0.71451709  0.48985500    -0.10000
C378        C  0.24595677  0.72513499  0.02061757     0.06200
C379        C  0.27109002  0.72024208  0.04211144    -0.03800
C380        C  0.30153662  0.70718517  0.03186319    -0.08200
C381        C  0.30802757  0.70055173  0.50041618     0.05300
C382        C  0.28219067  0.70238629  0.47923177    -0.03300
Br383      Br  0.28864530  0.69484255  0.43522113    -0.03000
H384        H  0.23229549  0.71903611  0.47301047     0.09200
H385        H  0.32085926  0.70546065  0.04868936     0.07200
Br386      Br  0.26571223  0.73462392  0.08535055    -0.03400
C387        C  0.39207715  0.52380700  0.98622707    -0.10000
C388        C  0.41400772  0.54832086  0.00318570     0.06200
C389        C  0.43503659  0.52828996  0.02426360    -0.03800
C390        C  0.43386307  0.48524064  0.02785885    -0.08200
C391        C  0.41205608  0.46089734  0.01105246     0.05300
C392        C  0.39111943  0.48045575  0.98983973    -0.03300
Br393      Br  0.36304837  0.44935053  0.96329178    -0.03000
H394        H  0.37630590  0.53820004  0.96931545     0.09200
H395        H  0.45011901  0.47056596  0.04419698     0.07200
Br396      Br  0.46556461  0.55724448  0.04983561    -0.03400
C397        C  0.40135082  0.76281581  0.33976585    -0.10000
C398        C  0.37541513  0.79066264  0.33538102     0.06200
C399        C  0.35880756  0.80624715  0.36182507    -0.03800
C400        C  0.36675820  0.79110386  0.39147928    -0.08200
C401        C  0.39078939  0.76032264  0.39496936     0.05300
C402        C  0.40887031  0.74741005  0.36878891    -0.03300
Br403      Br  0.44371647  0.70765263  0.37011062    -0.03000
H404        H  0.41525931  0.75079258  0.32022795     0.09200
H405        H  0.35306925  0.80187735  0.41159570     0.07200
Br406      Br  0.32543527  0.84762858  0.35907444    -0.03400
C407        C  0.40770911  0.68840273  0.11123447    -0.10000
C408        C  0.39707804  0.71361705  0.08663552     0.06200
C409        C  0.37497065  0.74652838  0.09305664    -0.03800
C410        C  0.36587493  0.75505440  0.12350045    -0.08200
C411        C  0.37916411  0.73290258  0.14807989     0.05300
C412        C  0.39916813  0.69827908  0.14208846    -0.03300
Br413      Br  0.41790522  0.66690282  0.17530116    -0.03000
H414        H  0.42449233  0.66305748  0.10675649     0.09200
H415        H  0.35049522  0.78179756  0.12826693     0.07200
Br416      Br  0.35783158  0.78447630  0.06273015    -0.03400
O417        O  0.47778356  0.67249203  0.96984604    -0.86200
O418        O  0.46889217  0.72882811  0.01831342    -0.83300
C419        C  0.46824641  0.76223828  0.00309284     0.97300
O420        O  0.44605178  0.76874226  0.98376899    -0.83300
O421        O  0.38951633  0.75825679  0.95035839    -0.85900
C422        C  0.39485891  0.73956619  0.92496649     1.01800
O423        O  0.40307295  0.70199692  0.92434009    -0.78700
O424        O  0.44290394  0.63897451  0.94047736    -0.78900
C425        C  0.47133164  0.65300833  0.94493783     1.01700
O426        O  0.44202213  0.61226455  0.50159399    -0.86200
O427        O  0.42272941  0.67352229  0.54577874    -0.83300
C428        C  0.41106181  0.70789068  0.55545289     0.97300
O429        O  0.41270996  0.73978839  0.53859999    -0.83300
O430        O  0.36051989  0.72459260  0.00449706    -0.85900
C431        C  0.34245285  0.70002421  0.99004962     1.01700
O432        O  0.35329234  0.67730360  0.96787390    -0.78700
O433        O  0.39263428  0.61297663  0.98535845    -0.78900
C434        C  0.41598788  0.59369412  0.99699095     1.01700
Cr435      Cr  0.45010863  0.67288320  0.50743279     1.93700
Cr436      Cr  0.40345145  0.74390651  0.99331659     1.93200
Cr437      Cr  0.39932914  0.66032040  0.95683441     1.39100
O438        O  0.41743169  0.69257346  0.98536548    -1.24000
O439        O  0.47325295  0.33448721  0.54817097    -0.86200
O440        O  0.47042057  0.28279466  0.49534409    -0.83300
C441        C  0.47184892  0.24966421  0.51043500     0.97300
O442        O  0.45002811  0.24160973  0.52956818    -0.83300
O443        O  0.39390110  0.24468600  0.56278138    -0.85900
C444        C  0.38855876  0.26622280  0.58695705     1.01800
O445        O  0.38912413  0.30532500  0.58611728    -0.78700
O446        O  0.43414406  0.36557298  0.57547569    -0.78900
C447        C  0.46360420  0.35276676  0.57295645     1.01700
O448        O  0.44114284  0.39618962  0.51600703    -0.86200
O449        O  0.42364772  0.33774756  0.96878074    -0.83300
C450        C  0.41456353  0.30338008  0.95722620     0.97300
O451        O  0.41329397  0.27043846  0.97361666    -0.83300
O452        O  0.36169661  0.27341856  0.50882691    -0.85900
C453        C  0.34201385  0.30168375  0.51577726     1.01700
O454        O  0.34957327  0.33102797  0.53435049    -0.78700
O455        O  0.38997461  0.39459850  0.52358472    -0.78900
C456        C  0.41451139  0.41462762  0.51631350     1.01700
Cr457      Cr  0.44950224  0.33588924  0.50864126     1.93700
Cr458      Cr  0.40605500  0.26165590  0.51952231     1.93200
Cr459      Cr  0.39259254  0.34673884  0.55296577     1.39100
O460        O  0.41548564  0.31445476  0.52760060    -1.24000
O461        O  0.22640853  0.16125600  0.95274149    -0.86200
O462        O  0.21950547  0.21974286  0.99931046    -0.83300
C463        C  0.21739990  0.25230994  0.98318863     0.97300
O464        O  0.19270232  0.25962028  0.96703077    -0.83300
O465        O  0.13352990  0.24532451  0.93708480    -0.85900
C466        C  0.13882156  0.22789175  0.91103296     1.01800
O467        O  0.15275412  0.19301731  0.91000536    -0.78700
O468        O  0.19023828  0.12686620  0.92575284    -0.78900
C469        C  0.21849388  0.14136262  0.92843644     1.01700
O470        O  0.19030098  0.10372087  0.48824747    -0.86200
O471        O  0.17656932  0.16620517  0.53212399    -0.83300
C472        C  0.16817398  0.20139904  0.54282478     0.97300
O473        O  0.16503377  0.23223304  0.52490211    -0.83300
O474        O  0.11103603  0.21010611  0.99380400    -0.85900
C475        C  0.09269902  0.18828789  0.97729701     1.01700
O476        O  0.10312329  0.16893051  0.95339189    -0.78700
O477        O  0.14112062  0.10367850  0.97162219    -0.78900
C478        C  0.16427548  0.08502362  0.98427915     1.01700
Cr479      Cr  0.20051361  0.16401861  0.49179290     1.93700
Cr480      Cr  0.15177782  0.23294131  0.97963071     1.93200
Cr481      Cr  0.14823445  0.15051480  0.94247233     1.39100
O482        O  0.16677524  0.18234010  0.97098099    -1.24000
O483        O  0.21464447  0.86611786  0.56319478    -0.86200
O484        O  0.22311491  0.78823906  0.53969201    -0.83300
C485        C  0.21797101  0.75238488  0.52924403     0.97300
O486        O  0.18960687  0.74148481  0.52264300    -0.83300
O487        O  0.15192929  0.75073684  0.57745450    -0.85900
C488        C  0.13468229  0.76757759  0.59843570     1.01800
O489        O  0.12324000  0.80382059  0.59476196    -0.78700
O490        O  0.17913524  0.84894320  0.59861516    -0.78900
C491        C  0.20746989  0.85945187  0.59158407     1.01700
O492        O  0.17717549  0.88608597  0.50767045    -0.86200
O493        O  0.18873750  0.80910743  0.98262197    -0.83300
C494        C  0.16255370  0.79416207  0.97249673     0.97300
O495        O  0.14007248  0.78462389  0.99070305    -0.83300
O496        O  0.10079563  0.78582446  0.54034275    -0.85900
C497        C  0.08791177  0.82123372  0.53640324     1.01700
O498        O  0.10309805  0.85397053  0.54290247    -0.78700
O499        O  0.15536817  0.90580189  0.55191059    -0.78900
C500        C  0.16505138  0.91411060  0.52466640     1.01700
Cr501      Cr  0.19825649  0.83626968  0.52474504     1.93700
Cr502      Cr  0.14701547  0.76913822  0.53376038     1.93200
Cr503      Cr  0.14176015  0.85101086  0.57000855     1.39100
O504        O  0.16241294  0.81892797  0.54262919    -1.24000
O505        O  0.05325642  0.36576551  0.69945912    -0.86200
O506        O  0.04165510  0.29072642  0.72443967    -0.83300
C507        C  0.04644814  0.25234284  0.72716697     0.97300
O508        O  0.07444036  0.23804234  0.73108309    -0.83300
O509        O  0.11552167  0.24956218  0.68107977    -0.85900
C510        C  0.13563991  0.26589647  0.66305511     1.01800
O511        O  0.14615169  0.30145110  0.66947443    -0.78700
O512        O  0.09024887  0.34816157  0.66485252    -0.78900
C513        C  0.06151564  0.35904148  0.67110801     1.01700
O514        O  0.09123050  0.38656649  0.75577768    -0.86200
O515        O  0.07768990  0.30946877  0.78055570    -0.83300
C516        C  0.10077157  0.28638701  0.78967998     0.97300
O517        O  0.12128392  0.27174188  0.77087721    -0.83300
O518        O  0.16448812  0.27801535  0.72426799    -0.85900
C519        C  0.17851110  0.31213974  0.72970499     1.01700
O520        O  0.16486228  0.34656449  0.72334468    -0.78700
O521        O  0.11326340  0.40279745  0.71172871    -0.78900
C522        C  0.10308753  0.41363233  0.73822078     1.01700
Cr523      Cr  0.06906709  0.33659223  0.73868862     1.93700
Cr524      Cr  0.11762056  0.26384208  0.72607760     1.93200
Cr525      Cr  0.12679589  0.34750232  0.69458694     1.39100
O526        O  0.10431196  0.31594669  0.72027284    -1.24000
O527        O  0.05537761  0.64068449  0.81446641    -0.86200
O528        O  0.04669168  0.71715976  0.78898193    -0.83300
C529        C  0.05286032  0.75339077  0.78023247     0.97300
O530        O  0.08157743  0.76395024  0.77523064    -0.83300
O531        O  0.11963950  0.75261497  0.82933876    -0.85900
C532        C  0.13670541  0.73379409  0.84917070     1.01800
O533        O  0.14962826  0.69953612  0.84205666    -0.74700
O534        O  0.09323006  0.65595854  0.84831576    -0.78900
C535        C  0.06439619  0.64615581  0.84251758     1.01700
O536        O  0.09199711  0.61515953  0.75895942    -0.86200
O537        O  0.08204577  0.69283734  0.73260337    -0.83300
C538        C  0.10753090  0.70973414  0.72215682     0.97300
O539        O  0.12918141  0.72202514  0.74046519    -0.83300
O540        O  0.17009792  0.71862444  0.78908775    -0.85900
C541        C  0.18360610  0.68346678  0.78498027     1.01700
O542        O  0.16815187  0.65027186  0.78989883    -0.78700
O543        O  0.11478004  0.59846426  0.80273448    -0.78900
C544        C  0.10343163  0.58786090  0.77680811     1.01700
Cr545      Cr  0.07202954  0.66776382  0.77500513     1.93700
Cr546      Cr  0.12369261  0.73551976  0.78455193     1.93200
Cr547      Cr  0.12975381  0.65328229  0.81848343     1.39100
O548        O  0.10829575  0.68533474  0.79226441    -1.24000
O549        O  0.30864895  0.13661417  0.80255899    -0.86200
O550        O  0.29568851  0.21060873  0.77419321    -0.83300
C551        C  0.30026772  0.24730480  0.76542177     0.97300
O552        O  0.32850863  0.26030207  0.76099704    -0.83300
O553        O  0.36525615  0.25679891  0.81646929    -0.85900
C554        C  0.38460235  0.24273254  0.83655821     1.01800
O555        O  0.39680297  0.20678890  0.83294458    -0.78700
O556        O  0.34342607  0.15761416  0.83807113    -0.78900
C557        C  0.31597172  0.14369274  0.83101838     1.01700
O558        O  0.34918942  0.11317674  0.74891508    -0.86200
O559        O  0.33466108  0.18858740  0.72010800    -0.83300
C560        C  0.35986574  0.20750593  0.71120170     0.97300
O561        O  0.38053669  0.21855686  0.73052769    -0.83300
O562        O  0.41790478  0.22354045  0.78015397    -0.85900
C563        C  0.43152857  0.18971056  0.77249036     1.01700
O564        O  0.41902398  0.15571447  0.78063695    -0.78700
O565        O  0.36901227  0.10056320  0.79461131    -0.78900
C566        C  0.36071333  0.08772107  0.76814328     1.01700
Cr567      Cr  0.32473685  0.16366682  0.76285179     1.93700
Cr568      Cr  0.37160367  0.23626438  0.77292498     1.93200
Cr569      Cr  0.38068333  0.15717691  0.80946039     1.39100
O570        O  0.35831045  0.18587418  0.78194608    -1.24000
O571        O  0.30382066  0.85738819  0.71327750    -0.86200
O572        O  0.29768286  0.78319877  0.74292178    -0.83300
C573        C  0.30462220  0.74798877  0.75357179     0.97300
O574        O  0.33354995  0.73885112  0.75960748    -0.83300
O575        O  0.36458752  0.73928095  0.70169290    -0.85900
C576        C  0.37861127  0.75413065  0.67824480     1.01800
O577        O  0.39199408  0.78932526  0.67949786    -0.78700
O578        O  0.33781184  0.83870311  0.67593202    -0.78900
C579        C  0.31009241  0.85120920  0.68448078     1.01700
O580        O  0.34548083  0.88607106  0.76343040    -0.86200
O581        O  0.33794822  0.81185007  0.79466284    -0.83300
C582        C  0.36564928  0.79869627  0.80287063     0.97300
O583        O  0.38578654  0.78704747  0.78272337    -0.83300
O584        O  0.41985005  0.77626137  0.73042225    -0.85900
C585        C  0.43337458  0.81091947  0.73404245     1.01700
O586        O  0.41814182  0.84390981  0.72724276    -0.78700
O587        O  0.36523672  0.89732581  0.71694259    -0.78900
C588        C  0.35613793  0.91064751  0.74323581     1.01700
Cr589      Cr  0.32385830  0.83315741  0.75212602     1.93700
Cr590      Cr  0.37439839  0.76385410  0.74272898     1.93200
Cr591      Cr  0.37715723  0.84040687  0.70217365     1.39100
O592        O  0.35792671  0.81258717  0.73213358    -1.24000
C593        C  0.34499163  0.02704542  0.73507524    -0.10000
C594        C  0.36205284  0.04229971  0.76095169     0.06200
C595        C  0.37775771  0.01322874  0.78065731    -0.03800
C596        C  0.37460507  0.97048509  0.77513969    -0.08200
C597        C  0.35731388  0.95569524  0.74952240     0.05300
C598        C  0.34279682  0.98433518  0.72912563    -0.03300
Br599      Br  0.31826668  0.96671804  0.69358230    -0.03000
H600        H  0.33270745  0.04831597  0.71963976     0.09200
H601        H  0.38658484  0.94864880  0.79039305     0.07200
Br602      Br  0.40547689  0.02874458  0.81454000    -0.03400
C603        C  0.25842684  0.70274366  0.73839639    -0.10000
C604        C  0.27821391  0.71941019  0.76179214     0.06200
C605        C  0.26962714  0.71342267  0.79324090    -0.03800
C606        C  0.23952221  0.69681150  0.80072745    -0.08200
C607        C  0.21837423  0.68359101  0.77731662     0.05300
C608        C  0.22916508  0.68357450  0.74613490    -0.03300
Br609      Br  0.20442934  0.65830858  0.71370009    -0.03000
H610        H  0.26525220  0.70572810  0.71411461     0.09200
H611        H  0.23168824  0.69684840  0.82485653     0.07200
Br612      Br  0.29664485  0.73123969  0.82684500    -0.03400
C613        C  0.47039271  0.80546192  0.77916237    -0.10000
C614        C  0.46652143  0.81071023  0.74681113     0.06200
C615        C  0.49335855  0.80411627  0.72716058    -0.03800
C616        C  0.02304847  0.78969623  0.73889070    -0.08200
C617        C  0.02593392  0.78088815  0.77077367     0.05300
C618        C  0.00026891  0.79137160  0.79096224    -0.03300
Br619      Br  0.50285327  0.78242432  0.83557309    -0.03000
H620        H  0.45007702  0.81037466  0.79462680     0.09200
H621        H  0.04261864  0.78186501  0.72315914     0.07200
Br622      Br  0.99011642  0.80777977  0.68211245    -0.03400
C623        C  0.23751448  0.30923261  0.72078208    -0.10000
C624        C  0.21171794  0.30938794  0.74199947     0.06200
C625        C  0.21718708  0.29441623  0.77237190    -0.03800
C626        C  0.24700350  0.27700671  0.78033784    -0.08200
C627        C  0.27202149  0.27403606  0.75845231     0.05300
C628        C  0.26739567  0.29147638  0.72864623    -0.03300
Br629      Br  0.29876146  0.28554753  0.69600042    -0.03000
H630        H  0.23355756  0.31937969  0.69709026     0.09200
H631        H  0.25011778  0.26375725  0.80328252     0.07200
Br632      Br  0.18420848  0.29408199  0.80348493    -0.03400
C633        C  0.01914963  0.19063396  0.74955882    -0.10000
C634        C  0.01822675  0.22480546  0.72923280     0.06200
C635        C  0.98838033  0.23716125  0.71677449    -0.03800
C636        C  0.46061651  0.22074618  0.72865152    -0.08200
C637        C  0.46111990  0.19249782  0.75343561     0.05300
C638        C  0.49079771  0.17545397  0.76269916    -0.03300
Br639      Br  0.49351273  0.13383943  0.79423321    -0.03000
H640        H  0.04193200  0.17934867  0.75831390     0.09200
H641        H  0.43801790  0.23287314  0.72016425     0.07200
Br642      Br  0.98427421  0.27769424  0.68433084    -0.03400
C643        C  0.10064838  0.46908864  0.77964415    -0.10000
C644        C  0.10404061  0.45838251  0.74792422     0.06200
C645        C  0.10747998  0.49103711  0.72610023    -0.03800
C646        C  0.10656599  0.53256147  0.73609471    -0.08200
C647        C  0.10348518  0.54315341  0.76768077     0.05300
C648        C  0.10082417  0.51073916  0.78970682    -0.03300
Br649      Br  0.09623133  0.52071465  0.83380518    -0.03000
H650        H  0.09808252  0.44490277  0.79685303     0.09200
H651        H  0.10895130  0.55688334  0.71895348     0.07200
Br652      Br  0.11326415  0.48253867  0.68201082    -0.03400
C653        C  0.26528908  0.86826393  0.60741310    -0.10000
C654        C  0.23291799  0.86245523  0.61636151     0.06200
C655        C  0.22634583  0.85667657  0.64855979    -0.03800
C656        C  0.25171430  0.85406046  0.67004639    -0.08200
C657        C  0.28410190  0.85778536  0.66079733     0.05300
C658        C  0.29057521  0.86637955  0.62908735    -0.03300
Br659      Br  0.33315806  0.87770487  0.61384872    -0.03000
H660        H  0.27122475  0.87371422  0.58317047     0.09200
H661        H  0.24595831  0.84822561  0.69427272     0.07200
Br662      Br  0.18357542  0.85248652  0.66568054    -0.03400
C663        C  0.15329918  0.73876150  0.93527967    -0.10000
C664        C  0.15901644  0.78097578  0.94002044     0.06200
C665        C  0.15766536  0.80840243  0.91470339    -0.03800
C666        C  0.14903632  0.79316906  0.88510761    -0.08200
C667        C  0.14304188  0.75058016  0.88051905     0.05300
C668        C  0.14602598  0.72320063  0.90601087    -0.03300
Br669      Br  0.14046386  0.66393789  0.90359244    -0.03000
H670        H  0.15445849  0.71754130  0.95475276     0.09200
H671        H  0.14786760  0.81427132  0.86560961     0.07200
Br672      Br  0.16707693  0.86624618  0.91965493    -0.03400
C673        C  0.09564675  0.73768617  0.63637344    -0.10000
C674        C  0.12769518  0.74573481  0.62765082     0.06200
C675        C  0.15249567  0.73726239  0.64869756    -0.03800
C676        C  0.14500738  0.72457172  0.67875410    -0.08200
C677        C  0.11304043  0.71733131  0.68831795     0.05300
C678        C  0.08819137  0.72237390  0.66616574    -0.03300
Br679      Br  0.04379851  0.71129790  0.67523351    -0.03000
H680        H  0.07633837  0.74392310  0.62010045     0.09200
H681        H  0.16447562  0.72216812  0.69513659     0.07200
Br682      Br  0.19697505  0.74590785  0.63863692    -0.03400
C683        C  0.18999665  0.01680546  0.49010915    -0.10000
C684        C  0.16180527  0.04097141  0.49331297     0.06200
C685        C  0.13383433  0.02223183  0.50558458    -0.03800
C686        C  0.13525596  0.98087785  0.51591277    -0.08200
C687        C  0.16379095  0.95723902  0.51310494     0.05300
C688        C  0.19111579  0.97542090  0.49940560    -0.03300
Br689      Br  0.23146949  0.94634629  0.49435007    -0.03000
H690        H  0.21158961  0.03028803  0.48030953     0.09200
H691        H  0.11394860  0.96701791  0.52597762     0.07200
Br692      Br  0.09357031  0.05153982  0.50995776    -0.03400
C693        C  0.13160138  0.20879800  0.62328621    -0.10000
C694        C  0.14780837  0.24396841  0.63480728     0.06200
C695        C  0.17494948  0.25865206  0.61812815    -0.03800
C696        C  0.18246830  0.24171071  0.58905122    -0.08200
C697        C  0.16448064  0.20927299  0.57637373     0.05300
C698        C  0.14003212  0.19110584  0.59433658    -0.03300
Br699      Br  0.11618632  0.14435811  0.57934481    -0.03000
H700        H  0.11150102  0.19603575  0.63614240     0.09200
H701        H  0.20201477  0.25491705  0.57565014     0.07200
Br702      Br  0.20337327  0.30152420  0.63280558    -0.03400
C703        C  0.10961966  0.30187456  0.84666244    -0.10000
C704        C  0.10420424  0.27311381  0.82244292     0.06200
C705        C  0.10825036  0.23044862  0.82851153    -0.03800
C706        C  0.11947613  0.21727541  0.85729442    -0.08200
C707        C  0.12643257  0.24561421  0.88133589     0.05300
C708        C  0.12026803  0.28844347  0.87616680    -0.03300
Br709      Br  0.12723689  0.33008565  0.90761212    -0.03000
H710        H  0.10698948  0.33485360  0.84223720     0.09200
H711        H  0.12255337  0.18419902  0.86086923     0.07200
Br712      Br  0.09886911  0.18820381  0.79808867    -0.03400
C713        C  0.25880595  0.13505553  0.84822698    -0.10000
C714        C  0.29161858  0.13690221  0.85618148     0.06200
C715        C  0.29988388  0.13549958  0.88818562    -0.03800
C716        C  0.27565604  0.13522488  0.91102376    -0.08200
C717        C  0.24284822  0.13555584  0.90308809     0.05300
C718        C  0.23457296  0.13431701  0.87112805    -0.03300
Br719      Br  0.19086520  0.13538610  0.85666349    -0.03000
H720        H  0.25173151  0.13600795  0.82396388     0.09200
H721        H  0.28260894  0.13539764  0.93533727     0.07200
Br722      Br  0.34354268  0.13337115  0.90296393    -0.03400
C723        C  0.04996203  0.19585189  0.51772468    -0.10000
C724        C  0.05839141  0.18903374  0.98558630     0.06200
C725        C  0.03453736  0.19578008  0.96286935    -0.03800
C726        C  0.50439351  0.21279509  0.97215387    -0.08200
C727        C  0.49825509  0.22070732  0.50365572     0.05300
C728        C  0.01991997  0.21174840  0.52663634    -0.03300
Br729      Br  0.01294616  0.22540159  0.56983146    -0.03000
H730        H  0.06802488  0.19101915  0.53549793     0.09200
H731        H  0.48703647  0.22078363  0.95435703     0.07200
Br732      Br  0.04301305  0.19206887  0.91883550    -0.03400
C733        C  0.28291516  0.31804048  0.51653818    -0.10000
C734        C  0.30937820  0.29832334  0.50190219     0.06200
C735        C  0.30350211  0.27170800  0.47578479    -0.03800
C736        C  0.27165156  0.26462212  0.96616997    -0.08200
C737        C  0.24539692  0.27940985  0.98334715     0.05300
C738        C  0.25132682  0.30767291  0.50813690    -0.03300
Br739      Br  0.21637373  0.32911429  0.53300466    -0.03000
H740        H  0.28664277  0.33850986  0.53634196     0.09200
H741        H  0.26782866  0.24204916  0.94762409     0.07200
Br742      Br  0.33545756  0.24144101  0.95305361    -0.03400
C743        C  0.01999603  0.35005281  0.59118697    -0.10000
C744        C  0.48826440  0.35928273  0.59840109     0.06200
C745        C  0.48091634  0.37110374  0.62955961    -0.03800
C746        C  0.00482736  0.37435418  0.65186231    -0.08200
C747        C  0.03704005  0.36256269  0.64511819     0.05300
C748        C  0.04432698  0.35112941  0.61378660    -0.03300
Br749      Br  0.08661123  0.33496787  0.59918074    -0.03000
H750        H  0.02678478  0.34041226  0.56778410     0.09200
H751        H  0.49887020  0.38085094  0.67602095     0.07200
Br752      Br  0.43780413  0.38303681  0.64347001    -0.03400
C753        C  0.38978704  0.27104640  0.64393819    -0.10000
C754        C  0.38200892  0.24702372  0.61775246     0.06200
C755        C  0.36596964  0.20875808  0.62232562    -0.03800
C756        C  0.35809587  0.19591271  0.65281064    -0.08200
C757        C  0.36570039  0.22087154  0.67875004     0.05300
C758        C  0.38120159  0.25929605  0.67374367    -0.03300
Br759      Br  0.38902341  0.30017573  0.70598538    -0.03000
H760        H  0.40190958  0.30053016  0.64122918     0.09200
H761        H  0.34615590  0.16643933  0.65623434     0.07200
Br762      Br  0.35279279  0.17395284  0.58828489    -0.03400
C763        C  0.43236397  0.27661978  0.90661160    -0.10000
C764        C  0.40920909  0.29906070  0.92358688     0.06200
C765        C  0.37994776  0.31021289  0.90925246    -0.03800
C766        C  0.37253362  0.29377103  0.87968904    -0.08200
C767        C  0.39464064  0.26751050  0.86400441     0.05300
C768        C  0.42571717  0.26182490  0.87677349    -0.03300
Br769      Br  0.46053036  0.23440663  0.85485985    -0.03000
H770        H  0.45536092  0.26930605  0.91707243     0.09200
H771        H  0.34901933  0.29968701  0.86981322     0.07200
Br772      Br  0.34887284  0.34543256  0.92984796    -0.03400
C773        C  0.49101171  0.62315744  0.89354632    -0.10000
C774        C  0.49720020  0.64719910  0.92049980     0.06200
C775        C  0.02662055  0.66769768  0.92182454    -0.03800
C776        C  0.04797904  0.66578470  0.89652133    -0.08200
C777        C  0.04104459  0.64329053  0.86918815     0.05300
C778        C  0.01189562  0.62085020  0.86818954    -0.03300
Br779      Br  0.50252091  0.58505342  0.83407165    -0.03000
H780        H  0.46847307  0.60661289  0.89154813     0.09200
H781        H  0.07001284  0.68329991  0.89805771     0.07200
Br782      Br  0.04132057  0.69971833  0.95701792    -0.03400
C783        C  0.01638850  0.80071142  0.48611496    -0.10000
C784        C  0.49338320  0.79295428  0.00949791     0.06200
C785        C  0.49971679  0.80417307  0.54170823    -0.03800
C786        C  0.02988090  0.82071700  0.54829327    -0.08200
C787        C  0.05436053  0.82273188  0.52582343     0.05300
C788        C  0.04684837  0.81544327  0.49423953    -0.03300
Br789      Br  0.07813765  0.82133293  0.46173310    -0.03000
H790        H  0.01134911  0.79359297  0.96353941     0.09200
H791        H  0.03523692  0.82688079  0.57259512     0.07200
Br792      Br  0.46782637  0.79875523  0.57395968    -0.03400
C793        C  0.25130066  0.71338060  0.98928890    -0.10000
C794        C  0.24610536  0.72594747  0.52125384     0.06200
C795        C  0.27130109  0.72091543  0.54266899    -0.03800
C796        C  0.30161431  0.70745982  0.53230940    -0.08200
C797        C  0.30808540  0.70004530  0.00001237     0.05300
C798        C  0.28221656  0.70117652  0.97880430    -0.03300
Br799      Br  0.28859858  0.69217316  0.93492585    -0.03000
H800        H  0.23226057  0.71757224  0.97238985     0.09200
H801        H  0.32097465  0.70528069  0.54906097     0.07200
Br802      Br  0.26625891  0.73570627  0.58587468    -0.03400
C803        C  0.39229830  0.52297020  0.48707459    -0.10000
C804        C  0.41464267  0.54762776  0.50338037     0.06200
C805        C  0.43652173  0.52764783  0.52371263    -0.03800
C806        C  0.43563298  0.48456397  0.52732377    -0.08200
C807        C  0.41332401  0.46010033  0.51124289     0.05300
C808        C  0.39164983  0.47959228  0.49068517    -0.03300
Br809      Br  0.36288481  0.44831090  0.46496805    -0.03000
H810        H  0.37591172  0.53727970  0.47067500     0.09200
H811        H  0.45247976  0.46997679  0.54314250     0.07200
Br812      Br  0.46796136  0.55666684  0.54820770    -0.03400
C813        C  0.40140845  0.76420985  0.84006415    -0.10000
C814        C  0.37492337  0.79118166  0.83565444     0.06200
C815        C  0.35792129  0.80611304  0.86207822    -0.03800
C816        C  0.36607046  0.79108037  0.89170395    -0.08200
C817        C  0.39061089  0.76096759  0.89516129     0.05300
C818        C  0.40901765  0.74872680  0.86901784    -0.03300
Br819      Br  0.44421394  0.70939725  0.87015933    -0.03000
H820        H  0.41561557  0.75269587  0.82057244     0.09200
H821        H  0.35209793  0.80129044  0.91180268     0.07200
Br822      Br  0.32363480  0.84624996  0.85937789    -0.03400
C823        C  0.40813371  0.68827813  0.61153406    -0.10000
C824        C  0.39701588  0.71300203  0.58684920     0.06200
C825        C  0.37462988  0.74560706  0.59327029    -0.03800
C826        C  0.36565446  0.75427623  0.62374069    -0.08200
C827        C  0.37933178  0.73260190  0.64836026     0.05300
C828        C  0.39974754  0.69835874  0.64240674    -0.03300
Br829      Br  0.41928889  0.66791382  0.67567691    -0.03000
H830        H  0.42520009  0.66324010  0.60708624     0.09200
H831        H  0.35000071  0.78076280  0.62846946     0.07200
Br832      Br  0.35698232  0.78305130  0.56287941    -0.03400
O833        O  0.97792025  0.67291073  0.46988358    -0.86200
O834        O  0.96904709  0.72917666  0.51832677    -0.83300
C835        C  0.96822351  0.76256786  0.50308651     0.97300
O836        O  0.94590213  0.76899863  0.48389407    -0.83300
O837        O  0.88931892  0.75825004  0.45067894    -0.85900
C838        C  0.89493018  0.73980335  0.42523438     1.01800
O839        O  0.90334037  0.70229400  0.42451044    -0.78700
O840        O  0.94308540  0.63915162  0.44064878    -0.78900
C841        C  0.97148792  0.65327226  0.44505354     1.01700
O842        O  0.94237063  0.61248789  0.00173822    -0.86200
O843        O  0.92315469  0.67350135  0.04606142    -0.83300
C844        C  0.91138185  0.70775416  0.05583012     0.97300
O845        O  0.91279575  0.73972254  0.03901882    -0.83300
O846        O  0.86065362  0.72430902  0.50492062    -0.85900
C847        C  0.84258853  0.69991415  0.49030885     1.01700
O848        O  0.85346129  0.67746170  0.46799143    -0.78700
O849        O  0.89290868  0.61317747  0.48551907    -0.78900
C850        C  0.91630533  0.59390444  0.49710113     1.01700
Cr851      Cr  0.95037901  0.67312938  0.00763969     1.93700
Cr852      Cr  0.90345415  0.74393417  0.49360191     1.93200
Cr853      Cr  0.89953271  0.66051436  0.45698190     1.39100
O854        O  0.91758993  0.69272058  0.48555684    -1.24000
O855        O  0.97339113  0.33459063  0.04795424    -0.86200
O856        O  0.97036677  0.28277339  0.99523118    -0.83300
C857        C  0.97175431  0.24969844  0.01040314     0.97300
O858        O  0.94997227  0.24184335  0.02961888    -0.83300
O859        O  0.89388722  0.24524003  0.06285857    -0.85900
C860        C  0.88865816  0.26682817  0.08703677     1.01800
O861        O  0.88934237  0.30592324  0.08616185    -0.78700
O862        O  0.93439853  0.36597637  0.07521129    -0.78900
C863        C  0.96381235  0.35296222  0.07272403     1.01700
O864        O  0.94133814  0.39632952  0.01578189    -0.86200
O865        O  0.92375922  0.33780994  0.46868565    -0.83300
C866        C  0.91462168  0.30344670  0.45715808     0.97300
O867        O  0.91332498  0.27053826  0.47358952    -0.83300
O868        O  0.86172304  0.27377458  0.00883950    -0.85900
C869        C  0.84203535  0.30201155  0.01580428     1.01700
O870        O  0.84962048  0.33138452  0.03435856    -0.78700
O871        O  0.89015544  0.39484056  0.02329940    -0.78900
C872        C  0.91472889  0.41482200  0.01605801     1.01700
Cr873      Cr  0.94958912  0.33599677  0.00846952     1.93700
Cr874      Cr  0.90604027  0.26195772  0.01954448     1.93200
Cr875      Cr  0.89274963  0.34714654  0.05284116     1.39100
O876        O  0.91555864  0.31473114  0.02751067    -1.24000
O877        O  0.72650462  0.16087340  0.45246486    -0.86200
O878        O  0.71979154  0.21940529  0.49903327    -0.83300
C879        C  0.71764040  0.25207601  0.48302658     0.97300
O880        O  0.69301326  0.25931821  0.46676210    -0.83300
O881        O  0.63391751  0.24506799  0.43670828    -0.85900
C882        C  0.63913076  0.22750985  0.41068043     1.01800
O883        O  0.65286841  0.19250460  0.40971317    -0.78700
O884        O  0.69028923  0.12636541  0.42560561    -0.78900
C885        C  0.71855076  0.14089427  0.42821891     1.01700
O886        O  0.69039518  0.10331160  0.98807000    -0.86200
O887        O  0.67667354  0.16579107  0.03187860    -0.83300
C888        C  0.66829748  0.20100006  0.04254105     0.97300
O889        O  0.66514486  0.23182026  0.02459802    -0.83300
O890        O  0.61130088  0.21008422  0.49351442    -0.85900
C891        C  0.59288110  0.18830044  0.47709094     1.01700
O892        O  0.60322072  0.16880342  0.45321128    -0.78700
O893        O  0.64111900  0.10353730  0.47163754    -0.78900
C894        C  0.66427577  0.08484864  0.48426278     1.01700
Cr895      Cr  0.70061851  0.16360479  0.99158909     1.93700
Cr896      Cr  0.65206854  0.23272076  0.47931356     1.93200
Cr897      Cr  0.64830952  0.15018661  0.44231418     1.39100
O898        O  0.66696429  0.18207016  0.47072251    -1.24000
O899        O  0.71487037  0.86564510  0.06301345    -0.86200
O900        O  0.72308073  0.78787002  0.03938099    -0.83300
C901        C  0.71785991  0.75197581  0.02906793     0.97300
O902        O  0.68945024  0.74108318  0.02260583    -0.83300
O903        O  0.65198217  0.75046543  0.07756187    -0.85900
C904        C  0.63478424  0.76732069  0.09857258     1.01800
O905        O  0.62341956  0.80360928  0.09495561    -0.78700
O906        O  0.67948275  0.84851698  0.09857061    -0.78900
C907        C  0.70781170  0.85896820  0.09143569     1.01700
O908        O  0.67704568  0.88578840  0.00767445    -0.86200
O909        O  0.68846884  0.80898634  0.48253426    -0.83300
C910        C  0.66228122  0.79392707  0.47251873     0.97300
O911        O  0.63990721  0.78428017  0.49079963    -0.83300
O912        O  0.60073055  0.78567452  0.04066951    -0.85900
C913        C  0.58787963  0.82111220  0.03675080     1.01700
O914        O  0.60314514  0.85381810  0.04319005    -0.78700
O915        O  0.65557219  0.90549742  0.05205862    -0.78900
C916        C  0.66508401  0.91381947  0.02476771     1.01700
Cr917      Cr  0.69817386  0.83591560  0.02460384     1.93700
Cr918      Cr  0.64690759  0.76885571  0.03389492     1.93200
Cr919      Cr  0.64194253  0.85073476  0.07014942     1.39100
O920        O  0.66241578  0.81861594  0.04267669    -1.24000
O921        O  0.55335867  0.36581194  0.19928160    -0.86200
O922        O  0.54159989  0.29076969  0.22429616    -0.83300
C923        C  0.54633323  0.25235255  0.22692702     0.97300
O924        O  0.57433223  0.23795213  0.23064650    -0.83300
O925        O  0.61531915  0.24950914  0.18051387    -0.85900
C926        C  0.63547636  0.26583517  0.16252087     1.01800
O927        O  0.64603021  0.30133862  0.16899249    -0.78700
O928        O  0.59023299  0.34825447  0.16452933    -0.78900
C929        C  0.56154836  0.35924384  0.17088816     1.01700
O930        O  0.59160024  0.38637637  0.25549201    -0.86200
O931        O  0.57802738  0.30932626  0.28025836    -0.83300
C932        C  0.60109166  0.28612463  0.28927001     0.97300
O933        O  0.62144429  0.27134230  0.27035954    -0.83300
O934        O  0.66447181  0.27764863  0.22361419    -0.85900
C935        C  0.67855230  0.31172247  0.22909661     1.01700
O936        O  0.66493233  0.34620544  0.22287050    -0.78700
O937        O  0.61349504  0.40267738  0.21139756    -0.78900
C938        C  0.60345824  0.41345040  0.23794626     1.01700
Cr939      Cr  0.56923769  0.33652309  0.23844341     1.93700
Cr940      Cr  0.61757489  0.26361881  0.22554265     1.93200
Cr941      Cr  0.62683422  0.34736453  0.19418477     1.39100
O942        O  0.60435271  0.31579243  0.21986643    -1.24000
O943        O  0.55563735  0.64008362  0.31447743    -0.86200
O944        O  0.54670726  0.71648797  0.28891967    -0.83300
C945        C  0.55272885  0.75272299  0.28007386     0.97300
O946        O  0.58141717  0.76341310  0.27504035    -0.83300
O947        O  0.61942059  0.75242459  0.32928449    -0.85900
C948        C  0.63647984  0.73370438  0.34918114     1.01800
O949        O  0.64960731  0.69956833  0.34210466    -0.74700
O950        O  0.59339474  0.65560057  0.34834972    -0.78900
C951        C  0.56458967  0.64567938  0.34253208     1.01700
O952        O  0.59244232  0.61471902  0.25904981    -0.86200
O953        O  0.58222243  0.69225369  0.23262123    -0.83300
C954        C  0.60767448  0.70921864  0.22216940     0.97300
O955        O  0.62928790  0.72164762  0.24046729    -0.83300
O956        O  0.67013116  0.71874987  0.28918552    -0.85900
C957        C  0.68382444  0.68369072  0.28516938     1.01700
O958        O  0.66849161  0.65038583  0.29005510    -0.78700
O959        O  0.61531721  0.59818444  0.30281595    -0.78900
C960        C  0.60403059  0.58750671  0.27688131     1.01700
Cr961      Cr  0.57224996  0.66720424  0.27502430     1.93700
Cr962      Cr  0.62364867  0.73527402  0.28451795     1.93200
Cr963      Cr  0.62999811  0.65313823  0.31856097     1.39100
O964        O  0.60844276  0.68500887  0.29228637    -1.24000
O965        O  0.80878236  0.13656971  0.30245060    -0.86200
O966        O  0.79587692  0.21066052  0.27422736    -0.83300
C967        C  0.80041334  0.24720054  0.26509874     0.97300
O968        O  0.82865945  0.26011198  0.26048832    -0.83300
O969        O  0.86534610  0.25705833  0.31617066    -0.85900
C970        C  0.88457240  0.24296206  0.33637822     1.01800
O971        O  0.89670751  0.20695031  0.33288915    -0.78700
O972        O  0.84349176  0.15760540  0.33799859    -0.78900
C973        C  0.81606461  0.14364360  0.33091435     1.01700
O974        O  0.84929363  0.11326637  0.24879016    -0.86200
O975        O  0.83475286  0.18867506  0.22004806    -0.83300
C976        C  0.86008189  0.20728766  0.21110550     0.97300
O977        O  0.88086748  0.21802626  0.23040852    -0.83300
O978        O  0.91803976  0.22359988  0.28015349    -0.85900
C979        C  0.93168269  0.18977653  0.27253498     1.01700
O980        O  0.91916514  0.15579534  0.28067305    -0.78700
O981        O  0.86919307  0.10059723  0.29446459    -0.78900
C982        C  0.86091124  0.08781096  0.26796298     1.01700
Cr983      Cr  0.82485281  0.16370373  0.26278581     1.93700
Cr984      Cr  0.87177338  0.23620171  0.27269182     1.93200
Cr985      Cr  0.88076803  0.15723362  0.30941438     1.39100
O986        O  0.85843099  0.18588894  0.28186673    -1.24000
O987        O  0.80431286  0.85723855  0.21315881    -0.86200
O988        O  0.79813429  0.78337478  0.24326738    -0.83300
C989        C  0.80505831  0.74820442  0.25399919     0.97300
O990        O  0.83399013  0.73903272  0.26001774    -0.83300
O991        O  0.86515655  0.73903544  0.20216801    -0.85900
C992        C  0.87921990  0.75369261  0.17867686     1.01800
O993        O  0.89257912  0.78890778  0.17979183    -0.78700
O994        O  0.83826875  0.83812675  0.17590130    -0.78900
C995        C  0.81056057  0.85077320  0.18437794     1.01700
O996        O  0.84607119  0.88630865  0.26321259    -0.86200
O997        O  0.83844841  0.81241690  0.29484862    -0.83300
C998        C  0.86612027  0.79923882  0.30314407     0.97300
O999        O  0.88623401  0.78735122  0.28305420    -0.83300
O1000       O  0.92033951  0.77639039  0.23083510    -0.85900
C1001       C  0.93380297  0.81113571  0.23423229     1.01700
O1002       O  0.91853167  0.84401734  0.22724219    -0.78700
O1003       O  0.86559953  0.89724971  0.21660256    -0.78900
C1004       C  0.85665329  0.91075332  0.24289530     1.01700
Cr1005     Cr  0.82436228  0.83336005  0.25218004     1.93700
Cr1006     Cr  0.87488276  0.76394045  0.24311377     1.93200
Cr1007     Cr  0.87760121  0.84017286  0.20216490     1.39100
O1008       O  0.85840173  0.81258453  0.23227802    -1.24000
C1009       C  0.84520353  0.02715120  0.23484998    -0.10000
C1010       C  0.86239245  0.04243173  0.26064359     0.06200
C1011       C  0.87842128  0.01341207  0.28013374    -0.03800
C1012       C  0.87536903  0.97066276  0.27458133    -0.08200
C1013       C  0.85790591  0.95582881  0.24908330     0.05300
C1014       C  0.84317007  0.98443994  0.22880890    -0.03300
Br1015     Br  0.81860390  0.96677112  0.19330376    -0.03000
H1016       H  0.83271340  0.04839615  0.21954670     0.09200
H1017       H  0.88754877  0.94885980  0.28971462     0.07200
Br1018     Br  0.90649763  0.02906509  0.31369869    -0.03400
C1019       C  0.75900897  0.70266943  0.23888976    -0.10000
C1020       C  0.77861095  0.71970621  0.26228322     0.06200
C1021       C  0.76975632  0.71423937  0.29371873    -0.03800
C1022       C  0.73959731  0.69771923  0.30113025    -0.08200
C1023       C  0.71864765  0.68406548  0.27768480     0.05300
C1024       C  0.72968173  0.68361229  0.24657404    -0.03300
Br1025     Br  0.70518795  0.65797783  0.21412844    -0.03000
H1026       H  0.76602317  0.70529631  0.21463150     0.09200
H1027       H  0.73158469  0.69809581  0.32520648     0.07200
Br1028     Br  0.79652779  0.73254212  0.32735826    -0.03400
C1029       C  0.97099227  0.80666601  0.27927877    -0.10000
C1030       C  0.96698092  0.81116813  0.24687580     0.06200
C1031       C  0.99369062  0.80399350  0.22717565    -0.03800
C1032       C  0.52286870  0.78940410  0.23884885    -0.08200
C1033       C  0.52567125  0.78010978  0.27066599     0.05300
C1034       C  0.49987614  0.79015004  0.29082686    -0.03300
Br1035     Br  0.00369019  0.78463911  0.33581020    -0.03000
H1036       H  0.95076161  0.81202868  0.29477370     0.09200
H1037       H  0.54254066  0.78197769  0.22313746     0.07200
Br1038     Br  0.49008638  0.80826409  0.18210723    -0.03400
C1039       C  0.73744881  0.30804190  0.21989872    -0.10000
C1040       C  0.71179253  0.30888634  0.24125913     0.06200
C1041       C  0.71736325  0.29460540  0.27179546    -0.03800
C1042       C  0.74719521  0.27727936  0.27985123    -0.08200
C1043       C  0.77212074  0.27374759  0.25788850     0.05300
C1044       C  0.76732983  0.29039482  0.22784689    -0.03300
Br1045     Br  0.79840070  0.28350918  0.19505303    -0.03000
H1046       H  0.73337345  0.31759816  0.19608411     0.09200
H1047       H  0.75040182  0.26458065  0.30295986     0.07200
Br1048     Br  0.68448686  0.29523440  0.30303011    -0.03400
C1049       C  0.51898296  0.19071582  0.24944050    -0.10000
C1050       C  0.51806304  0.22485937  0.22908528     0.06200
C1051       C  0.48821565  0.23711451  0.21657281    -0.03800
C1052       C  0.96078154  0.22076587  0.22869259    -0.08200
C1053       C  0.96126248  0.19252248  0.25348494     0.05300
C1054       C  0.99090895  0.17536826  0.26273298    -0.03300
Br1055     Br  0.99359761  0.13405189  0.29449076    -0.03000
H1056       H  0.54175706  0.17947439  0.25822262     0.09200
H1057       H  0.93820377  0.23304914  0.22026129     0.07200
Br1058     Br  0.48413815  0.27751034  0.18405008    -0.03400
C1059       C  0.60174721  0.46868982  0.27953560    -0.10000
C1060       C  0.60459517  0.45813782  0.24774504     0.06200
C1061       C  0.60764097  0.49087815  0.22594746    -0.03800
C1062       C  0.60693455  0.53235143  0.23605665    -0.08200
C1063       C  0.60427994  0.54281299  0.26770382     0.05300
C1064       C  0.60199579  0.51029751  0.28969177    -0.03300
Br1065     Br  0.59789570  0.52003601  0.33385968    -0.03000
H1066       H  0.59947784  0.44441580  0.29671457     0.09200
H1067       H  0.60899089  0.55674230  0.21892966     0.07200
Br1068     Br  0.61228518  0.48255529  0.18172117    -0.03400
C1069       C  0.76576230  0.86735320  0.10716754    -0.10000
C1070       C  0.73335793  0.86190146  0.11615831     0.06200
C1071       C  0.72679535  0.85646352  0.14839605    -0.03800
C1072       C  0.75216610  0.85380390  0.16988960    -0.08200
C1073       C  0.78457304  0.85722437  0.16062839     0.05300
C1074       C  0.79105852  0.86549988  0.12886025    -0.03300
Br1075     Br  0.83367247  0.87656274  0.11359031    -0.03000
H1076       H  0.77170421  0.87255052  0.08289270     0.09200
H1077       H  0.74638697  0.84824681  0.19414907     0.07200
Br1078     Br  0.68400753  0.85295169  0.16557002    -0.03400
C1079       C  0.65293977  0.73857935  0.43529560    -0.10000
C1080       C  0.65860598  0.78079862  0.44005863     0.06200
C1081       C  0.65706325  0.80829154  0.41479737    -0.03800
C1082       C  0.64845968  0.79308161  0.38519441    -0.08200
C1083       C  0.64261328  0.75047135  0.38056069     0.05300
C1084       C  0.64564753  0.72305183  0.40602776    -0.03300
Br1085     Br  0.64022100  0.66376638  0.40357928    -0.03000
H1086       H  0.65418591  0.71732520  0.45474398     0.09200
H1087       H  0.64720488  0.81422164  0.36572482     0.07200
Br1088     Br  0.66609470  0.86622056  0.41986271    -0.03400
C1089       C  0.59570703  0.73755182  0.13651222    -0.10000
C1090       C  0.62777056  0.74543370  0.12775186     0.06200
C1091       C  0.65258692  0.73674702  0.14872837    -0.03800
C1092       C  0.64513185  0.72376427  0.17871897    -0.08200
C1093       C  0.61315174  0.71676788  0.18833581     0.05300
C1094       C  0.58825487  0.72220558  0.16629023    -0.03300
Br1095     Br  0.54379609  0.71182686  0.17555377    -0.03000
H1096       H  0.57638379  0.74403601  0.12030991     0.09200
H1097       H  0.66462134  0.72105877  0.19504649     0.07200
Br1098     Br  0.69703032  0.74577542  0.13873758    -0.03400
C1099       C  0.68996463  0.01643745  0.99009118    -0.10000
C1100       C  0.66182870  0.04067155  0.99344511     0.06200
C1101       C  0.63393170  0.02205467  0.00598633    -0.03800
C1102       C  0.63534772  0.98068345  0.01627555    -0.08200
C1103       C  0.66382098  0.95696197  0.01326253     0.05300
C1104       C  0.69110101  0.97508698  0.99944772    -0.03300
Br1105     Br  0.73145432  0.94601722  0.99439379    -0.03000
H1106       H  0.71151550  0.02985281  0.98015267     0.09200
H1107       H  0.61409567  0.96689090  0.02650396     0.07200
Br1108     Br  0.59382549  0.05158605  0.01088477    -0.03400
C1109       C  0.63186478  0.20835745  0.12301386    -0.10000
C1110       C  0.64773651  0.24391925  0.13431097     0.06200
C1111       C  0.67470305  0.25889820  0.11749927    -0.03800
C1112       C  0.68239748  0.24169491  0.08856730    -0.08200
C1113       C  0.66465996  0.20892595  0.07606817     0.05300
C1114       C  0.64041046  0.19053736  0.09414013    -0.03300
Br1115     Br  0.61698313  0.14330430  0.07937506    -0.03000
H1116       H  0.61192688  0.19537430  0.13597760     0.09200
H1117       H  0.70182043  0.25503189  0.07508020     0.07200
Br1118     Br  0.70256348  0.30272594  0.13161901    -0.03400
C1119       C  0.61025671  0.30161355  0.34622618    -0.10000
C1120       C  0.60466868  0.27286751  0.32203365     0.06200
C1121       C  0.60855892  0.23018973  0.32812769    -0.03800
C1122       C  0.61980935  0.21696981  0.35689768    -0.08200
C1123       C  0.62687547  0.24527952  0.38093299     0.05300
C1124       C  0.62087641  0.28814051  0.37573335    -0.03300
Br1125     Br  0.62794733  0.32975386  0.40717633    -0.03000
H1126       H  0.60773290  0.33460277  0.34179070     0.09200
H1127       H  0.62274185  0.18387798  0.36049257     0.07200
Br1128     Br  0.59872677  0.18799701  0.29780932    -0.03400
C1129       C  0.75888550  0.13506189  0.34804184    -0.10000
C1130       C  0.79169296  0.13677626  0.35603446     0.06200
C1131       C  0.79993688  0.13509202  0.38803166    -0.03800
C1132       C  0.77569043  0.13463899  0.41084097    -0.08200
C1133       C  0.74288995  0.13507992  0.40287534     0.05300
C1134       C  0.73463539  0.13412563  0.37091391    -0.03300
Br1135     Br  0.69093890  0.13527095  0.35643836    -0.03000
H1136       H  0.75183242  0.13624020  0.32377963     0.09200
H1137       H  0.78262061  0.13460813  0.43516050     0.07200
Br1138     Br  0.84358165  0.13279466  0.40283314    -0.03400
C1139       C  0.55021080  0.19617432  0.01765101    -0.10000
C1140       C  0.55859619  0.18921875  0.48549403     0.06200
C1141       C  0.53465334  0.19583508  0.46285028    -0.03800
C1142       C  0.00430145  0.21284064  0.47215074    -0.08200
C1143       C  0.99804790  0.22057560  0.00361280     0.05300
C1144       C  0.52024314  0.21228998  0.02658452    -0.03300
Br1145     Br  0.51359603  0.22691973  0.06965853    -0.03000
H1146       H  0.56835525  0.19149401  0.03540439     0.09200
H1147       H  0.98701067  0.22095602  0.45434025     0.07200
Br1148     Br  0.54305021  0.19231228  0.41879356    -0.03400
C1149       C  0.78285255  0.31802761  0.01661626    -0.10000
C1150       C  0.80938559  0.29851389  0.00194664     0.06200
C1151       C  0.80357600  0.27185117  0.97582811    -0.03800
C1152       C  0.77181829  0.26484523  0.46608483    -0.08200
C1153       C  0.74554176  0.27933756  0.48334545     0.05300
C1154       C  0.75129550  0.30742504  0.00823561    -0.03300
Br1155     Br  0.71628033  0.32857008  0.03315776    -0.03000
H1156       H  0.78651687  0.33848966  0.03643573     0.09200
H1157       H  0.76805575  0.24234730  0.44747489     0.07200
Br1158     Br  0.83560091  0.24176660  0.45299153    -0.03400
C1159       C  0.52000980  0.35146563  0.09091635    -0.10000
C1160       C  0.98847558  0.35921052  0.09822028     0.06200
C1161       C  0.98122563  0.37207918  0.12917663    -0.03800
C1162       C  0.50464341  0.37369887  0.15197527    -0.08200
C1163       C  0.53701370  0.36299136  0.14497649     0.05300
C1164       C  0.54440062  0.35267827  0.11345606    -0.03300
Br1165     Br  0.58693565  0.33837285  0.09849238    -0.03000
H1166       H  0.52686496  0.34271135  0.06734162     0.09200
H1167       H  0.99915546  0.38234744  0.17559690     0.07200
Br1168     Br  0.93835096  0.38632939  0.14261112    -0.03400
C1169       C  0.88947481  0.27170654  0.14410414    -0.10000
C1170       C  0.88202520  0.24762635  0.11783009     0.06200
C1171       C  0.86627757  0.20912209  0.12227862    -0.03800
C1172       C  0.85848467  0.19598987  0.15270260    -0.08200
C1173       C  0.86583514  0.22091189  0.17871629     0.05300
C1174       C  0.88095802  0.25961331  0.17386997    -0.03300
Br1175     Br  0.88827150  0.30030063  0.20636164    -0.03000
H1176       H  0.90130338  0.30141647  0.14151473     0.09200
H1177       H  0.84679135  0.16633176  0.15602094     0.07200
Br1178     Br  0.85326336  0.17437151  0.08814415    -0.03400
C1179       C  0.93233779  0.27665437  0.40649732    -0.10000
C1180       C  0.90921220  0.29910613  0.42350610     0.06200
C1181       C  0.87995985  0.31033846  0.40917793    -0.03800
C1182       C  0.87252935  0.29399610  0.37957433    -0.08200
C1183       C  0.89461298  0.26774988  0.36383952     0.05300
C1184       C  0.92567138  0.26194847  0.37663197    -0.03300
Br1185     Br  0.96043433  0.23436668  0.35474848    -0.03000
H1186       H  0.95530790  0.26926754  0.41694103     0.09200
H1187       H  0.84901340  0.29996694  0.36970765     0.07200
Br1188     Br  0.84891417  0.34552906  0.42984893    -0.03400
C1189       C  0.99101452  0.62365231  0.39358542    -0.10000
C1190       C  0.99734098  0.64738711  0.42064640     0.06200
C1191       C  0.52648187  0.66751153  0.42167787    -0.03800
C1192       C  0.54792552  0.66558270  0.39643142    -0.08200
C1193       C  0.54116591  0.64285305  0.36916430     0.05300
C1194       C  0.51209621  0.62024339  0.36817106    -0.03300
Br1195     Br  0.00242074  0.58568193  0.33407081    -0.03000
H1196       H  0.96837134  0.60733879  0.39149568     0.09200
H1197       H  0.56987779  0.68323991  0.39795902     0.07200
Br1198     Br  0.54101093  0.69976508  0.45681786    -0.03400
C1199       C  0.51631584  0.80099787  0.98639236    -0.10000
C1200       C  0.99336003  0.79331521  0.50924721     0.06200
C1201       C  0.99974949  0.80458839  0.04192086    -0.03800
C1202       C  0.52987635  0.81999416  0.04872948    -0.08200
C1203       C  0.55428843  0.82265244  0.02624022     0.05300
C1204       C  0.54672258  0.81589104  0.99460243    -0.03300
Br1205     Br  0.57791648  0.82275165  0.96211973    -0.03000
H1206       H  0.51152353  0.79343349  0.46334200     0.09200
H1207       H  0.53526130  0.82576092  0.07307766     0.07200
Br1208     Br  0.96795337  0.79923920  0.07426922    -0.03400
C1209       C  0.75139309  0.71306746  0.48936825    -0.10000
C1210       C  0.74598881  0.72544752  0.02118871     0.06200
C1211       C  0.77113944  0.72054404  0.04267813    -0.03800
C1212       C  0.80150765  0.70714372  0.03242820    -0.08200
C1213       C  0.80818697  0.69989367  0.50021039     0.05300
C1214       C  0.78234770  0.70088504  0.47896038    -0.03300
Br1215     Br  0.78880571  0.69170015  0.43511203    -0.03000
H1216       H  0.73237785  0.71714318  0.47242758     0.09200
H1217       H  0.82079923  0.70499536  0.04925001     0.07200
Br1218     Br  0.76601208  0.73563516  0.08582035    -0.03400
C1219       C  0.89276409  0.52327053  0.98693038    -0.10000
C1220       C  0.91498070  0.54785205  0.00345597     0.06200
C1221       C  0.93674681  0.52779018  0.02385039    -0.03800
C1222       C  0.93582035  0.48468895  0.02735671    -0.08200
C1223       C  0.91361582  0.46030349  0.01106643     0.05300
C1224       C  0.89211446  0.47988032  0.99039143    -0.03300
Br1225     Br  0.86365225  0.44872267  0.96427492    -0.03000
H1226       H  0.87650062  0.53765463  0.97045382     0.09200
H1227       H  0.95255619  0.47002480  0.04324510     0.07200
Br1228     Br  0.96806584  0.55672306  0.04854451    -0.03400
C1229       C  0.90222586  0.76561593  0.34055142    -0.10000
C1230       C  0.87539195  0.79198783  0.33599429     0.06200
C1231       C  0.85798094  0.80636390  0.36234305    -0.03800
C1232       C  0.86597568  0.79116710  0.39196454    -0.08200
C1233       C  0.89078841  0.76145140  0.39550168     0.05300
C1234       C  0.90967295  0.74993575  0.36950355    -0.03300
Br1235     Br  0.94534026  0.71134930  0.37086936    -0.03000
H1236       H  0.91682146  0.75465194  0.32116324     0.09200
H1237       H  0.85167740  0.80090093  0.41197284     0.07200
Br1238     Br  0.82330749  0.84592854  0.35956323    -0.03400
C1239       C  0.90878779  0.68799308  0.11191804    -0.10000
C1240       C  0.89743587  0.71264092  0.08728153     0.06200
C1241       C  0.87483303  0.74495273  0.09378366    -0.03800
C1242       C  0.86594038  0.75354098  0.12428003    -0.08200
C1243       C  0.87986055  0.73203005  0.14884704     0.05300
C1244       C  0.90041232  0.69793894  0.14282348    -0.03300
Br1245     Br  0.91996549  0.66739380  0.17603627    -0.03000
H1246       H  0.92596950  0.66310642  0.10740064     0.09200
H1247       H  0.85013718  0.77986222  0.12905933     0.07200
Br1248     Br  0.85671907  0.78208960  0.06344852    -0.03400
O1249       O  0.97756339  0.67265016  0.96985120    -0.86200
O1250       O  0.96901185  0.72841349  0.01907070    -0.83300
C1251       C  0.96847547  0.76194859  0.00405857     0.97300
O1252       O  0.94647158  0.76849407  0.98457031    -0.83300
O1253       O  0.89042841  0.75848882  0.95061622    -0.85900
C1254       C  0.89500384  0.73936082  0.92525348     1.01800
O1255       O  0.90228015  0.70144219  0.92470113    -0.78700
O1256       O  0.94251550  0.63875906  0.94086793    -0.78900
C1257       C  0.97089578  0.65305714  0.94501709     1.01700
O1258       O  0.94218731  0.61291092  0.50181696    -0.86200
O1259       O  0.92324111  0.67415479  0.54583678    -0.83300
C1260       C  0.91164576  0.70847833  0.55557720     0.97300
O1261       O  0.91323368  0.74033386  0.53871871    -0.83300
O1262       O  0.86045124  0.72517192  0.00453603    -0.85900
C1263       C  0.84239435  0.70010793  0.99057682     1.01700
O1264       O  0.85317218  0.67664296  0.96884715    -0.78700
O1265       O  0.89287949  0.61257153  0.98626680    -0.78900
C1266       C  0.91652680  0.59332498  0.99741474     1.01700
Cr1267     Cr  0.95049085  0.67360930  0.50746122     1.93700
Cr1268     Cr  0.90369437  0.74384598  0.99373968     1.93200
Cr1269     Cr  0.89909029  0.65991872  0.95751325     1.39100
O1270       O  0.91743055  0.69237871  0.98582957    -1.24000
O1271       O  0.97243710  0.33582842  0.54759148    -0.86200
O1272       O  0.96924681  0.28385803  0.49481122    -0.83300
C1273       C  0.97094094  0.25092872  0.51009594     0.97300
O1274       O  0.94930763  0.24294731  0.52943355    -0.83300
O1275       O  0.89365839  0.24601566  0.56315517    -0.85900
C1276       C  0.88821976  0.26762632  0.58727271     1.01800
O1277       O  0.88843574  0.30673970  0.58628105    -0.78700
O1278       O  0.93344492  0.36684429  0.57510946    -0.78900
C1279       C  0.96288218  0.35397366  0.57248849     1.01700
O1280       O  0.94006761  0.39719723  0.51540944    -0.86200
O1281       O  0.92523885  0.33713229  0.96887414    -0.83300
C1282       C  0.91600958  0.30289225  0.95723121     0.97300
O1283       O  0.91464081  0.26987454  0.97352458    -0.83300
O1284       O  0.86071898  0.27409941  0.50944717    -0.85900
C1285       C  0.84111474  0.30257406  0.51609374     1.01700
O1286       O  0.84869248  0.33217730  0.53441924    -0.78700
O1287       O  0.88895470  0.39565339  0.52331127    -0.78900
C1288       C  0.91345007  0.41562151  0.51583189     1.01700
Cr1289     Cr  0.94837916  0.33694681  0.50817091     1.93700
Cr1290     Cr  0.90520947  0.26268824  0.51971326     1.93200
Cr1291     Cr  0.89176376  0.34795797  0.55286649     1.39100
O1292       O  0.91454948  0.31556754  0.52747754    -1.24000
O1293       O  0.72615277  0.16117390  0.95265426    -0.86200
O1294       O  0.71981511  0.21935656  0.99957044    -0.83300
C1295       C  0.71791850  0.25201544  0.98353541     0.97300
O1296       O  0.69334688  0.25947171  0.96724431    -0.83300
O1297       O  0.63411924  0.24592123  0.93715673    -0.85900
C1298       C  0.63904142  0.22810381  0.91116558     1.01800
O1299       O  0.65246190  0.19290146  0.91026276    -0.78700
O1300       O  0.68977705  0.12674369  0.92594420    -0.78900
C1301       C  0.71807404  0.14126467  0.92840911     1.01700
O1302       O  0.69072662  0.10317377  0.48794859    -0.86200
O1303       O  0.67682828  0.16580300  0.53162138    -0.83300
C1304       C  0.66835132  0.20102057  0.54221300     0.97300
O1305       O  0.66503446  0.23167196  0.52415185    -0.83300
O1306       O  0.61120886  0.21133051  0.99402135    -0.85900
C1307       C  0.59266579  0.18961331  0.97769762     1.01700
O1308       O  0.60291662  0.16963664  0.95399430    -0.78700
O1309       O  0.64064134  0.10402198  0.97228859    -0.78900
C1310       C  0.66384975  0.08511073  0.98465431     1.01700
Cr1311     Cr  0.70082040  0.16348291  0.49130019     1.93700
Cr1312     Cr  0.65219509  0.23331622  0.97978460     1.93200
Cr1313     Cr  0.64788016  0.15068676  0.94289624     1.39100
O1314       O  0.66675784  0.18248955  0.97118092    -1.24000
O1315       O  0.71556305  0.86545714  0.56255631    -0.86200
O1316       O  0.72335215  0.78769765  0.53862942    -0.83300
C1317       C  0.71793635  0.75178911  0.52843873     0.97300
O1318       O  0.68941958  0.74102431  0.52226972    -0.83300
O1319       O  0.65234628  0.75067504  0.57768151    -0.85900
C1320       C  0.63527251  0.76768488  0.59875275     1.01800
O1321       O  0.62408204  0.80406788  0.59517190    -0.78700
O1322       O  0.68013331  0.84901742  0.59830282    -0.78900
C1323       C  0.70845028  0.85937778  0.59106501     1.01700
O1324       O  0.67729532  0.88581354  0.50744376    -0.86200
O1325       O  0.68878863  0.80882112  0.98293841    -0.83300
C1326       C  0.66277869  0.79359170  0.97266545     0.97300
O1327       O  0.64018755  0.78394184  0.99066878    -0.83300
O1328       O  0.60093211  0.78591171  0.54122219    -0.85900
C1329       C  0.58801529  0.82132333  0.53743118     1.01700
O1330       O  0.60342660  0.85404769  0.54344875    -0.78700
O1331       O  0.65599901  0.90566992  0.55185728    -0.78900
C1332       C  0.66545610  0.91388627  0.52454497     1.01700
Cr1333     Cr  0.69839117  0.83588064  0.52419442     1.93700
Cr1334     Cr  0.64702416  0.76904257  0.53397992     1.93200
Cr1335     Cr  0.64245067  0.85103353  0.57011374     1.39100
O1336       O  0.66273366  0.81874571  0.54259788    -1.24000
O1337       O  0.55430908  0.36603614  0.69928880    -0.86200
O1338       O  0.54233236  0.29096845  0.72411930    -0.83300
C1339       C  0.54702434  0.25260049  0.72710569     0.97300
O1340       O  0.57502485  0.23823471  0.73097329    -0.83300
O1341       O  0.61615204  0.24964659  0.68075338    -0.85900
C1342       C  0.63629048  0.26592966  0.66269589     1.01800
O1343       O  0.64701381  0.30135867  0.66925456    -0.78700
O1344       O  0.59116312  0.34813725  0.66461111    -0.78900
C1345       C  0.56250219  0.35923875  0.67093681     1.01700
O1346       O  0.59220013  0.38653942  0.75556370    -0.86200
O1347       O  0.57846563  0.30941008  0.78030111    -0.83300
C1348       C  0.60157328  0.28636770  0.78944098     0.97300
O1349       O  0.62209570  0.27175638  0.77063192    -0.83300
O1350       O  0.66519762  0.27802641  0.72398644    -0.85900
C1351       C  0.67916920  0.31214453  0.72961176     1.01700
O1352       O  0.66555992  0.34658655  0.72325737    -0.78700
O1353       O  0.61405667  0.40293502  0.71144484    -0.78900
C1354       C  0.60385762  0.41370339  0.73796158     1.01700
Cr1355     Cr  0.56991117  0.33668885  0.73845768     1.93700
Cr1356     Cr  0.61831801  0.26387060  0.72581810     1.93200
Cr1357     Cr  0.62763664  0.34751893  0.69436880     1.39100
O1358       O  0.60509832  0.31598862  0.72002978    -1.24000
O1359       O  0.55645723  0.64059157  0.81508655    -0.86200
O1360       O  0.54678660  0.71669525  0.78927352    -0.83300
C1361       C  0.55265260  0.75309978  0.78070892     0.97300
O1362       O  0.58132406  0.76407777  0.77589300    -0.83300
O1363       O  0.61982072  0.75250319  0.82977229    -0.85900
C1364       C  0.63726762  0.73375832  0.84933040     1.01800
O1365       O  0.65059677  0.69993593  0.84180809    -0.74700
O1366       O  0.59451201  0.65591300  0.84875375    -0.78900
C1367       C  0.56566317  0.64600679  0.84310739     1.01700
O1368       O  0.59282776  0.61513988  0.75930472    -0.86200
O1369       O  0.58238117  0.69259573  0.73288085    -0.83300
C1370       C  0.60765106  0.71006943  0.72245021     0.97300
O1371       O  0.62907996  0.72298255  0.74074302    -0.83300
O1372       O  0.67031409  0.71937868  0.78892362    -0.85900
C1373       C  0.68399902  0.68433812  0.78462926     1.01700
O1374       O  0.66873999  0.65096780  0.78946774    -0.78700
O1375       O  0.61584302  0.59852802  0.80293533    -0.78900
C1376       C  0.60444259  0.58785336  0.77704895     1.01700
Cr1377     Cr  0.57259665  0.66757741  0.77538352     1.93700
Cr1378     Cr  0.62373820  0.73595294  0.78487497     1.93200
Cr1379     Cr  0.63068939  0.65355871  0.81847722     1.39100
O1380       O  0.60879019  0.68552214  0.79248262    -1.24000
O1381       O  0.80866845  0.13649405  0.80249401    -0.86200
O1382       O  0.79609596  0.21065151  0.77421819    -0.83300
C1383       C  0.80078404  0.24729644  0.76538735     0.97300
O1384       O  0.82906218  0.26023001  0.76106131    -0.83300
O1385       O  0.86551913  0.25660872  0.81678806    -0.85900
C1386       C  0.88478136  0.24249985  0.83695009     1.01800
O1387       O  0.89680546  0.20642050  0.83350781    -0.78700
O1388       O  0.84319963  0.15743061  0.83825011    -0.78900
C1389       C  0.81576768  0.14355950  0.83101897     1.01700
O1390       O  0.84969072  0.11342189  0.74891014    -0.86200
O1391       O  0.83522028  0.18879230  0.72027063    -0.83300
C1392       C  0.86050220  0.20760222  0.71145483     0.97300
O1393       O  0.88117319  0.21840206  0.73085724    -0.83300
O1394       O  0.91818019  0.22305408  0.78087855    -0.85900
C1395       C  0.93165364  0.18923669  0.77297911     1.01700
O1396       O  0.91914839  0.15527152  0.78117410    -0.78700
O1397       O  0.86896276  0.10038394  0.79476715    -0.78900
C1398       C  0.86118157  0.08785813  0.76805597     1.01700
Cr1399     Cr  0.82508323  0.16370790  0.76290744     1.93700
Cr1400     Cr  0.87203771  0.23607588  0.77326553     1.93200
Cr1401     Cr  0.88067131  0.15689290  0.80984966     1.39100
O1402       O  0.85855177  0.18576257  0.78223239    -1.24000
O1403       O  0.80478749  0.85786891  0.71303801    -0.86200
O1404       O  0.79849018  0.78391860  0.74309069    -0.83300
C1405       C  0.80535303  0.74865418  0.75369751     0.97300
O1406       O  0.83426827  0.73933619  0.75968052    -0.83300
O1407       O  0.86528797  0.73933248  0.70182725    -0.85900
C1408       C  0.87930560  0.75399825  0.67832262     1.01800
O1409       O  0.89275493  0.78915190  0.67944269    -0.78700
O1410       O  0.83852885  0.83859841  0.67563022    -0.78900
C1411       C  0.81093118  0.85152106  0.68421072     1.01700
O1412       O  0.84686263  0.88655911  0.76302709    -0.86200
O1413       O  0.83903725  0.81253921  0.79462578    -0.83300
C1414       C  0.86664055  0.79904165  0.80288714     0.97300
O1415       O  0.88675133  0.78731156  0.78274750    -0.83300
O1416       O  0.92057827  0.77653679  0.73034718    -0.85900
C1417       C  0.93404426  0.81127447  0.73373813     1.01700
O1418       O  0.91881963  0.84418643  0.72679825    -0.78700
O1419       O  0.86603998  0.89752424  0.71628713    -0.78900
C1420       C  0.85734956  0.91100722  0.74265821     1.01700
Cr1421     Cr  0.82489144  0.83375598  0.75200923     1.93700
Cr1422     Cr  0.87518889  0.76412635  0.74275359     1.93200
Cr1423     Cr  0.87790252  0.84044080  0.70181746     1.39100
O1424       O  0.85877435  0.81285603  0.73198364    -1.24000
C1425       C  0.84554637  0.02734114  0.73485024    -0.10000
C1426       C  0.86300599  0.04262249  0.76045481     0.06200
C1427       C  0.87956843  0.01370360  0.77958623    -0.03800
C1428       C  0.87661345  0.97094319  0.77402148    -0.08200
C1429       C  0.85869562  0.95607003  0.74882824     0.05300
C1430       C  0.84357214  0.98464610  0.72878594    -0.03300
Br1431     Br  0.81846161  0.96696902  0.69365109    -0.03000
H1432       H  0.83270696  0.04855951  0.71979215     0.09200
H1433       H  0.88916024  0.94918375  0.78891063     0.07200
Br1434     Br  0.90823368  0.02966564  0.81259443    -0.03400
C1435       C  0.75944621  0.70284787  0.73854086    -0.10000
C1436       C  0.77885387  0.72023868  0.76195696     0.06200
C1437       C  0.76974202  0.71524920  0.79336664    -0.03800
C1438       C  0.73959782  0.69868936  0.80068969    -0.08200
C1439       C  0.71881840  0.68475692  0.77720815     0.05300
C1440       C  0.73003367  0.68392927  0.74615652    -0.03300
Br1441     Br  0.70563827  0.65811062  0.71370286    -0.03000
H1442       H  0.76664342  0.70516711  0.71431214     0.09200
H1443       H  0.73141760  0.69935030  0.82471433     0.07200
Br1444     Br  0.79602972  0.73446640  0.82707642    -0.03400
C1445       C  0.97117060  0.80668324  0.77869597    -0.10000
C1446       C  0.96717621  0.81127692  0.74630760     0.06200
C1447       C  0.99379416  0.80395738  0.72653475    -0.03800
C1448       C  0.52265257  0.78987848  0.73954504    -0.08200
C1449       C  0.52544364  0.78039702  0.77133536     0.05300
C1450       C  0.49954551  0.79023698  0.79144559    -0.03300
Br1451     Br  0.00373601  0.78393101  0.83513069    -0.03000
H1452       H  0.95094134  0.81198978  0.79421224     0.09200
H1453       H  0.54240954  0.78274603  0.72386821     0.07200
Br1454     Br  0.49006749  0.80928012  0.68280181    -0.03400
C1455       C  0.73803594  0.30888219  0.72055652    -0.10000
C1456       C  0.71235565  0.30941450  0.74189019     0.06200
C1457       C  0.71790088  0.29473329  0.77233593    -0.03800
C1458       C  0.74773963  0.27742206  0.78030528    -0.08200
C1459       C  0.77262191  0.27405260  0.75831484     0.05300
C1460       C  0.76785811  0.29097833  0.72836419    -0.03300
Br1461     Br  0.79875034  0.28388685  0.69543373    -0.03000
H1462       H  0.73396516  0.31868896  0.69679554     0.09200
H1463       H  0.75094323  0.26443671  0.80332588     0.07200
Br1464     Br  0.68500551  0.29441335  0.80353026    -0.03400
C1465       C  0.51946860  0.19192836  0.75070041    -0.10000
C1466       C  0.51870896  0.22520610  0.72956645     0.06200
C1467       C  0.48896854  0.23685905  0.71648284    -0.03800
C1468       C  0.96017271  0.22117410  0.72922411    -0.08200
C1469       C  0.96089314  0.19207438  0.75343980     0.05300
C1470       C  0.99056424  0.17402682  0.76165208    -0.03300
Br1471     Br  0.99344908  0.13064439  0.79180014    -0.03000
H1472       H  0.54212998  0.18133630  0.76010864     0.09200
H1473       H  0.93758602  0.23412031  0.72143406     0.07200
Br1474     Br  0.48519774  0.27648184  0.68341129    -0.03400
C1475       C  0.60273223  0.46889987  0.77957777    -0.10000
C1476       C  0.60467289  0.45843172  0.74772305     0.06200
C1477       C  0.60665210  0.49124475  0.72588247    -0.03800
C1478       C  0.60613141  0.53271384  0.73606405    -0.08200
C1479       C  0.60456173  0.54311871  0.76780403     0.05300
C1480       C  0.60308205  0.51049001  0.78978510    -0.03300
Br1481     Br  0.60034025  0.51994002  0.83407113    -0.03000
H1482       H  0.60118885  0.44455114  0.79677581     0.09200
H1483       H  0.60743071  0.55714072  0.71889487     0.07200
Br1484     Br  0.60935365  0.48292276  0.68152189    -0.03400
C1485       C  0.76627320  0.86897332  0.60704006    -0.10000
C1486       C  0.73389692  0.86286779  0.61586785     0.06200
C1487       C  0.72725281  0.85735591  0.64809685    -0.03800
C1488       C  0.75256199  0.85463349  0.66965189    -0.08200
C1489       C  0.78496324  0.85838090  0.66050460     0.05300
C1490       C  0.79148627  0.86734235  0.62885258    -0.03300
Br1491     Br  0.83401525  0.87982205  0.61402210    -0.03000
H1492       H  0.77225060  0.87455717  0.58282474     0.09200
H1493       H  0.74674528  0.84879469  0.69386379     0.07200
Br1494     Br  0.68443030  0.85400810  0.66522328    -0.03400
C1495       C  0.65548773  0.73800651  0.93515255    -0.10000
C1496       C  0.65957452  0.78049408  0.94020728     0.06200
C1497       C  0.65638356  0.80830085  0.91531595    -0.03800
C1498       C  0.64791181  0.79307408  0.88571769    -0.08200
C1499       C  0.64363409  0.75021646  0.88073970     0.05300
C1500       C  0.64810750  0.72253114  0.90586832    -0.03300
Br1501     Br  0.64407878  0.66303908  0.90296394    -0.03000
H1502       H  0.65778538  0.71658144  0.95440760     0.09200
H1503       H  0.64537843  0.81449076  0.86653338     0.07200
Br1504     Br  0.66276788  0.86674973  0.92101179    -0.03400
C1505       C  0.59602864  0.73813663  0.63667888    -0.10000
C1506       C  0.62814094  0.74591594  0.62797967     0.06200
C1507       C  0.65285476  0.73754241  0.64913981    -0.03800
C1508       C  0.64527453  0.72453754  0.67910523    -0.08200
C1509       C  0.61325054  0.71755394  0.68862181     0.05300
C1510       C  0.58843552  0.72307081  0.66651731    -0.03300
Br1511     Br  0.54390216  0.71344887  0.67591899    -0.03000
H1512       H  0.57675954  0.74460860  0.62040629     0.09200
H1513       H  0.66471705  0.72182652  0.69552989     0.07200
Br1514     Br  0.69728141  0.74720864  0.63942434    -0.03400
C1515       C  0.69033284  0.01618646  0.48949856    -0.10000
C1516       C  0.66227585  0.04049696  0.49306671     0.06200
C1517       C  0.63444563  0.02208894  0.50587410    -0.03800
C1518       C  0.63583552  0.98076620  0.51620019    -0.08200
C1519       C  0.66422776  0.95694473  0.51298555     0.05300
C1520       C  0.69145046  0.97487933  0.49891782    -0.03300
Br1521     Br  0.73170233  0.94563270  0.49361038    -0.03000
H1522       H  0.71182081  0.02952011  0.47936561     0.09200
H1523       H  0.61464073  0.96710290  0.52663800     0.07200
Br1524     Br  0.59452880  0.05193997  0.51116769    -0.03400
C1525       C  0.63206810  0.20877033  0.62285371    -0.10000
C1526       C  0.64824120  0.24406166  0.63426434     0.06200
C1527       C  0.67526110  0.25876330  0.61739382    -0.03800
C1528       C  0.68265602  0.24175621  0.58829135    -0.08200
C1529       C  0.66473552  0.20915227  0.57577059     0.05300
C1530       C  0.64048572  0.19090485  0.59393037    -0.03300
Br1531     Br  0.61718522  0.14346529  0.57935116    -0.03000
H1532       H  0.61211277  0.19589938  0.63585702     0.09200
H1533       H  0.70214798  0.25491752  0.57479876     0.07200
Br1534     Br  0.70381005  0.30157961  0.63191181    -0.03400
C1535       C  0.61047886  0.30198993  0.84640144    -0.10000
C1536       C  0.60502140  0.27315834  0.82223438     0.06200
C1537       C  0.60898198  0.23050839  0.82841358    -0.03800
C1538       C  0.61995473  0.21741126  0.85731306    -0.08200
C1539       C  0.62689093  0.24580793  0.88133857     0.05300
C1540       C  0.62101617  0.28865438  0.87597480    -0.03300
Br1541     Br  0.62832632  0.33045821  0.90721045    -0.03000
H1542       H  0.60799600  0.33496047  0.84187337     0.09200
H1543       H  0.62288239  0.18433180  0.86097095     0.07200
Br1544     Br  0.59985672  0.18815012  0.79800708    -0.03400
C1545       C  0.75841103  0.13509013  0.84809843    -0.10000
C1546       C  0.79124049  0.13677863  0.85608295     0.06200
C1547       C  0.79943240  0.13507846  0.88809206    -0.03800
C1548       C  0.77518481  0.13500010  0.91091026    -0.08200
C1549       C  0.74237772  0.13541910  0.90297842     0.05300
C1550       C  0.73413515  0.13415763  0.87100617    -0.03300
Br1551     Br  0.69040600  0.13443449  0.85660577    -0.03000
H1552       H  0.75137856  0.13610399  0.82382614     0.09200
H1553       H  0.78213475  0.13504029  0.93522422     0.07200
Br1554     Br  0.84303437  0.13176206  0.90289325    -0.03400
C1555       C  0.55068924  0.19389930  0.51727903    -0.10000
C1556       C  0.55833578  0.19113241  0.98592554     0.06200
C1557       C  0.53459021  0.19758485  0.96308279    -0.03800
C1558       C  0.00451581  0.21123606  0.97218824    -0.08200
C1559       C  0.99756251  0.22222997  0.50353381     0.05300
C1560       C  0.52090903  0.21022685  0.52652009    -0.03300
Br1561     Br  0.51485863  0.22482920  0.56966421    -0.03000
H1562       H  0.56900180  0.18900427  0.53489998     0.09200
H1563       H  0.98706568  0.21971793  0.95442573     0.07200
Br1564     Br  0.54337411  0.19395319  0.91909238    -0.03400
C1565       C  0.78192293  0.31828168  0.51675300    -0.10000
C1566       C  0.80859458  0.29917481  0.50204268     0.06200
C1567       C  0.80307657  0.27299211  0.47561284    -0.03800
C1568       C  0.77221857  0.26386401  0.96650361    -0.08200
C1569       C  0.74608578  0.27886706  0.98373016     0.05300
C1570       C  0.75047319  0.30763850  0.50807180    -0.03300
Br1571     Br  0.71518892  0.32841807  0.53280321    -0.03000
H1572       H  0.78539717  0.33844038  0.53678182     0.09200
H1573       H  0.76824423  0.24113391  0.94809736     0.07200
Br1574     Br  0.83575670  0.23976243  0.95338993    -0.03400
C1575       C  0.52092028  0.35122138  0.59109813    -0.10000
C1576       C  0.98754652  0.36000700  0.59806246     0.06200
C1577       C  0.98034725  0.37318804  0.62897753    -0.03800
C1578       C  0.50552194  0.37291503  0.65224287    -0.08200
C1579       C  0.53795772  0.36280780  0.64509249     0.05300
C1580       C  0.54537131  0.35275700  0.61354721    -0.03300
Br1581     Br  0.58802719  0.33934226  0.59844674    -0.03000
H1582       H  0.52778263  0.34273899  0.56747178     0.09200
H1583       H  0.99826574  0.38343677  0.67544056     0.07200
Br1584     Br  0.93760281  0.38851734  0.64218231    -0.03400
C1585       C  0.88946373  0.27240732  0.64437107    -0.10000
C1586       C  0.88191423  0.24835898  0.61811008     0.06200
C1587       C  0.86639141  0.20971294  0.62260238    -0.03800
C1588       C  0.85888513  0.19641469  0.65304719    -0.08200
C1589       C  0.86628947  0.22129829  0.67906553     0.05300
C1590       C  0.88123119  0.26012216  0.67418947    -0.03300
Br1591     Br  0.88845123  0.30080216  0.70669288    -0.03000
H1592       H  0.90110812  0.30223576  0.64172416     0.09200
H1593       H  0.84730194  0.16669009  0.65637425     0.07200
Br1594     Br  0.85317289  0.17504157  0.58849544    -0.03400
C1595       C  0.93346370  0.27729095  0.90611246    -0.10000
C1596       C  0.91029527  0.29889805  0.92364240     0.06200
C1597       C  0.88056850  0.30938398  0.90990235    -0.03800
C1598       C  0.87282537  0.29297207  0.88043441    -0.08200
C1599       C  0.89500746  0.26746104  0.86421683     0.05300
C1600       C  0.92645685  0.26256336  0.87633560    -0.03300
Br1601     Br  0.96115882  0.23630215  0.85351262    -0.03000
H1602       H  0.95685960  0.27046849  0.91615172     0.09200
H1603       H  0.84896458  0.29831427  0.87102068     0.07200
Br1604     Br  0.84947041  0.34382625  0.93118632    -0.03400
C1605       C  0.99001403  0.62321478  0.89342080    -0.10000
C1606       C  0.99641443  0.64740656  0.92027501     0.06200
C1607       C  0.52760671  0.66703572  0.92247949    -0.03800
C1608       C  0.54929610  0.66497650  0.89738996    -0.08200
C1609       C  0.54241206  0.64286547  0.86985699     0.05300
C1610       C  0.51319367  0.62061605  0.86858494    -0.03300
Br1611     Br  0.00083817  0.58544843  0.83369775    -0.03000
H1612       H  0.96754014  0.60648664  0.89170043     0.09200
H1613       H  0.57153397  0.68207328  0.89923409     0.07200
Br1614     Br  0.54210748  0.69857909  0.95799709    -0.03400
C1615       C  0.51620402  0.80166933  0.48742315    -0.10000
C1616       C  0.99354038  0.79267519  0.01079655     0.06200
C1617       C  0.99928775  0.80662697  0.54009718    -0.03800
C1618       C  0.53016730  0.81869550  0.54998694    -0.08200
C1619       C  0.55428902  0.82276194  0.52733629     0.05300
C1620       C  0.54648421  0.81700861  0.49566290    -0.03300
Br1621     Br  0.57738351  0.82573388  0.46316659    -0.03000
H1622       H  0.51176214  0.79196944  0.96244073     0.09200
H1623       H  0.53573841  0.82369057  0.57438779     0.07200
Br1624     Br  0.96698215  0.80343013  0.57214051    -0.03400
C1625       C  0.75136496  0.71400329  0.98981348    -0.10000
C1626       C  0.74597639  0.72496745  0.52065664     0.06200
C1627       C  0.77108974  0.72023577  0.54219827    -0.03800
C1628       C  0.80155878  0.70713759  0.53203588    -0.08200
C1629       C  0.80806642  0.70030034  0.00055740     0.05300
C1630       C  0.78229215  0.70202860  0.97928928    -0.03300
Br1631     Br  0.78892651  0.69459489  0.93529352    -0.03000
H1632       H  0.73236892  0.71845397  0.97290448     0.09200
H1633       H  0.82084090  0.70548487  0.54890671     0.07200
Br1634     Br  0.76568153  0.73497985  0.58537164    -0.03400
C1635       C  0.89257917  0.52403520  0.48603869    -0.10000
C1636       C  0.91435373  0.54851493  0.50320636     0.06200
C1637       C  0.93524506  0.52844291  0.52438568    -0.03800
C1638       C  0.93402880  0.48538195  0.52793149    -0.08200
C1639       C  0.91234341  0.46107720  0.51093824     0.05300
C1640       C  0.89161068  0.48067871  0.48956465    -0.03300
Br1641     Br  0.86385390  0.44964903  0.46265984    -0.03000
H1642       H  0.87695143  0.53846498  0.46902116     0.09200
H1643       H  0.95015577  0.47066680  0.54436738     0.07200
Br1644     Br  0.96562146  0.55736564  0.55014481    -0.03400
C1645       C  0.90193515  0.76374098  0.84020836    -0.10000
C1646       C  0.87576726  0.79121170  0.83571523     0.06200
C1647       C  0.85894394  0.80652887  0.86212378    -0.03800
C1648       C  0.86680722  0.79132295  0.89179407    -0.08200
C1649       C  0.89100852  0.76077926  0.89535629     0.05300
C1650       C  0.90938924  0.74829638  0.86925627    -0.03300
Br1651     Br  0.94460572  0.70911644  0.87074768    -0.03000
H1652       H  0.91608412  0.75202588  0.82073695     0.09200
H1653       H  0.85292718  0.80185284  0.91185499     0.07200
Br1654     Br  0.82540718  0.84767079  0.85931585    -0.03400
C1655       C  0.90846989  0.68829708  0.61150212    -0.10000
C1656       C  0.89764963  0.71348245  0.58695736     0.06200
C1657       C  0.87536895  0.74615226  0.59345820    -0.03800
C1658       C  0.86631890  0.75455742  0.62392281    -0.08200
C1659       C  0.87977614  0.73248838  0.64845491     0.05300
C1660       C  0.89990431  0.69799482  0.64238651    -0.03300
Br1661     Br  0.91854373  0.66635155  0.67550646    -0.03000
H1662       H  0.92533645  0.66306422  0.60694982     0.09200
H1663       H  0.85080262  0.78115213  0.62873787     0.07200
Br1664     Br  0.85783389  0.78387045  0.56319104    -0.03400
loop_ 
_geom_bond_atom_site_label_1 
_geom_bond_atom_site_label_2 
_geom_bond_distance 
_geom_bond_site_symmetry_2 
_ccdc_geom_bond_type 
O1            C9   1.266       .  A
O1         Cr435   1.970       .  S
O2            C3   1.262       .  A
O2         Cr435   2.004       .  S
C3            O4   1.259       .  A
C3          C368   1.470       .  S
O4          Cr20   1.990       .  S
O5            C6   1.257       .  A
O5          Cr20   1.990       .  S
C6            O7   1.254       .  A
C6          C401   1.469       .  S
O7          Cr21   1.952       .  S
O8            C9   1.281       .  A
O8          Cr21   2.045       .  S
C9          C358   1.505       .  S
O10         C434   1.257   1_554  A
O10         Cr19   1.998       .  S
O11          C12   1.268       .  A
O11         Cr19   1.994       .  S
C12          O13   1.261       .  A
C12         C408   1.471       .  S
O13        Cr436   1.983   1_554  S
O14          C15   1.256       .  A
O14         Cr20   1.952       .  S
C15          O16   1.271       .  A
C15         C381   1.485       .  S
O16         Cr21   2.031       .  S
O17          C18   1.254       .  A
O17         Cr21   1.987       .  S
C18         O426   1.255       .  A
C18         C804   1.491       .  S
Cr19        O417   1.970   1_554  S
Cr19        O418   2.005       .  S
Cr19        O438   1.770   1_554  S
Cr20        O429   1.985       .  S
Cr20         O22   1.776       .  S
Cr21         O22   1.774       .  S
O22        Cr435   1.770       .  S
O23          C31   1.272       .  A
O23         Cr41   1.968       .  S
O24          C25   1.252   1_556  A
O24         Cr41   1.987   1_556  S
C25          O26   1.249       .  A
C25         C311   1.458       .  S
O26         Cr42   1.980       .  S
O27          C28   1.259       .  A
O27         Cr42   2.000       .  S
C28          O29   1.260       .  A
C28         C338   1.488       .  S
O29         Cr43   1.966       .  S
O30          C31   1.290       .  A
O30         Cr43   2.072       .  S
C31         C328   1.516       .  S
O32          C40   1.249       .  A
O32         Cr41   1.987       .  S
O33          C34   1.269       .  A
O33        Cr457   1.981       .  S
C34          O35   1.278       .  A
C34         C348   1.466       .  S
O35        Cr458   2.022       .  S
O36          C37   1.250       .  A
O36         Cr42   1.934       .  S
C37          O38   1.272       .  A
C37         C318   1.485       .  S
O38         Cr43   2.024       .  S
O39          C40   1.249       .  A
O39         Cr43   2.002       .  S
C40         C391   1.480       .  S
Cr41        O449   1.982   1_554  S
Cr41         O44   1.774       .  S
Cr42        O451   2.023   1_554  S
Cr42         O44   1.778       .  S
Cr43         O44   1.766       .  S
O45          C53   1.265       .  A
O45        Cr479   1.976       .  S
O46          C47   1.263       .  A
O46        Cr479   1.996       .  S
C47          O48   1.261       .  A
C47         C321   1.460       .  S
O48         Cr64   1.985       .  S
O49          C50   1.264       .  A
O49         Cr64   2.022       .  S
C50          O51   1.258       .  A
C50         C291   1.492       .  S
O51         Cr65   1.969       .  S
O52          C53   1.272       .  A
O52         Cr65   2.023       .  S
C53         C301   1.492       .  S
O54         C478   1.261       .  A
O54         Cr63   1.993       .  S
O55          C56   1.264       .  A
O55         Cr63   1.994   1_554  S
C56          O57   1.266       .  A
C56         C281   1.468       .  S
O57        Cr480   2.000   1_554  S
O58          C59   1.256       .  A
O58         Cr64   1.947       .  S
C59          O60   1.268       .  A
C59         C308   1.466       .  S
O60         Cr65   2.010       .  S
O61          C62   1.257       .  A
O61         Cr65   1.993       .  S
C62         O470   1.261       .  A
C62         C684   1.485       .  S
Cr63        O461   1.976       .  S
Cr63        O462   1.995       .  S
Cr63        O482   1.765       .  S
Cr64        O473   1.999       .  S
Cr64         O66   1.774       .  S
Cr65         O66   1.770       .  S
O66        Cr479   1.765       .  S
O67          C75   1.273       .  A
O67         Cr85   2.028       .  S
O68          C69   1.254       .  A
O68         Cr85   1.964       .  S
C69          O70   1.264       .  A
C69         C378   1.477       .  S
O70         Cr86   2.028       .  S
O71          C72   1.264       .  A
O71         Cr86   1.984       .  S
C72          O73   1.267       .  A
C72         C258   1.472       .  S
O73         Cr87   2.016       .  S
O74          C75   1.262       .  A
O74         Cr87   1.981       .  S
C75         C238   1.505       .  S
O76          C84   1.254       .  A
O76         Cr85   1.966       .  S
O77          C78   1.269       .  A
O77        Cr501   2.022       .  S
C78          O79   1.255       .  A
C78         C248   1.458       .  S
O79        Cr502   1.942       .  S
O80          C81   1.267       .  A
O80         Cr86   2.005       .  S
C81          O82   1.262       .  A
C81         C371   1.467       .  S
O82         Cr87   1.988       .  S
O83          C84   1.265       .  A
O83         Cr87   2.015       .  S
C84         C271   1.476       .  S
Cr85        O493   2.024   1_554  S
Cr85         O88   1.769       .  S
Cr86        O495   1.944   1_554  S
Cr86         O88   1.769       .  S
Cr87         O88   1.770       .  S
O89          C97   1.277       .  A
O89        Cr107   2.040       .  S
O90          C91   1.256       .  A
O90        Cr107   1.967       .  S
C91          O92   1.259       .  A
C91         C218   1.478       .  S
O92        Cr108   1.994       .  S
O93          C94   1.257       .  A
O93        Cr108   1.984       .  S
C94          O95   1.258       .  A
C94         C278   1.483       .  S
O95        Cr109   1.990       .  S
O96          C97   1.266       .  A
O96        Cr109   1.985       .  S
C97         C331   1.514       .  S
O98         C106   1.259       .  A
O98        Cr107   1.994       .  S
O99         C100   1.272       .  A
O99        Cr107   2.036       .  S
C100        O101   1.256       .  A
C100        C288   1.480       .  S
O101       Cr108   1.943       .  S
O102        C103   1.268       .  A
O102       Cr108   2.003       .  S
C103        O104   1.272       .  A
C103        C208   1.479       .  S
O104       Cr109   2.008       .  S
O105        C106   1.257       .  A
O105       Cr109   1.998       .  S
C106        C228   1.497       .  S
Cr107       O110   1.779       .  S
Cr108       O110   1.779       .  S
Cr109       O110   1.773       .  S
O111        C119   1.274       .  A
O111       Cr129   2.032       .  S
O112        C113   1.256       .  A
O112       Cr129   1.986       .  S
C113        O114   1.261       .  A
C113        C201   1.482       .  S
O114       Cr130   2.011       .  S
O115        C116   1.264       .  A
O115       Cr130   1.998       .  S
C116        O117   1.255       .  A
C116        C251   1.470       .  S
O117       Cr131   1.979       .  S
O118        C119   1.266       .  A
O118       Cr131   1.980       .  S
C119        C361   1.500       .  S
O120        C128   1.261       .  A
O120       Cr129   1.994       .  S
O121        C122   1.276       .  A
O121       Cr129   2.041       .  S
C122        O123   1.259       .  A
C122        C261   1.491       .  S
O123       Cr130   1.946       .  S
O124        C125   1.269       .  A
O124       Cr130   2.008       .  S
C125        O126   1.270       .  A
C125        C191   1.478       .  S
O126       Cr131   2.006       .  S
O127        C128   1.255       .  A
O127       Cr131   1.991       .  S
C128        C231   1.490       .  S
Cr129       O132   1.773       .  S
Cr130       O132   1.775       .  S
Cr131       O132   1.772       .  S
O133        C141   1.279       .  A
O133       Cr151   2.034       .  S
O134        C135   1.258       .  A
O134       Cr151   1.978       .  S
C135        O136   1.262       .  A
C135        C211   1.479       .  S
O136       Cr152   2.011       .  S
O137        C138   1.264       .  A
O137       Cr152   1.991       .  S
C138        O139   1.266       .  A
C138        C351   1.479       .  S
O139       Cr153   2.004       .  S
O140        C141   1.266       .  A
O140       Cr153   1.971       .  S
C141        C298   1.496       .  S
O142        C150   1.260       .  A
O142       Cr151   1.993       .  S
O143        C144   1.274       .  A
O143       Cr151   2.049       .  S
C144        O145   1.248       .  A
C144        C341   1.481       .  S
O145       Cr152   1.935       .  S
O146        C147   1.262       .  A
O146       Cr152   1.986       .  S
C147        O148   1.266       .  A
C147        C221   1.476       .  S
O148       Cr153   2.012       .  S
O149        C150   1.255       .  A
O149       Cr153   1.989       .  S
C150        C178   1.490       .  S
Cr151       O154   1.772       .  S
Cr152       O154   1.763       .  S
Cr153       O154   1.767       .  S
O155        C163   1.275       .  A
O155       Cr173   2.026       .  S
O156        C157   1.257       .  A
O156       Cr173   1.986       .  S
C157        O158   1.262       .  A
C157        C188   1.480       .  S
O158       Cr174   2.017       .  S
O159        C160   1.259       .  A
O159       Cr174   1.968       .  S
C160        O161   1.266       .  A
C160        C411   1.450       .  S
O161       Cr175   1.992       .  S
O162        C163   1.267       .  A
O162       Cr175   1.987       .  S
C163        C241   1.500       .  S
O164        C172   1.260       .  A
O164       Cr173   1.990       .  S
O165        C166   1.274       .  A
O165       Cr173   2.042       .  S
C166        O167   1.252       .  A
C166        C398   1.481       .  S
O167       Cr174   1.928       .  S
O168        C169   1.261       .  A
O168       Cr174   2.000       .  S
C169        O170   1.267       .  A
C169        C198   1.480       .  S
O170       Cr175   2.017       .  S
O171        C172   1.258       .  A
O171       Cr175   1.989       .  S
C172        C181   1.473       .  S
Cr173       O176   1.769       .  S
Cr174       O176   1.769       .  S
Cr175       O176   1.765       .  S
C177        C178   1.406       .  A
C177        C182   1.399   1_545  A
C177        H184   1.082       .  S
C178        C179   1.421       .  A
C179        C180   1.401   1_545  A
C179       Br186   1.923       .  S
C180        C181   1.398       .  A
C180        H185   1.083       .  S
C181        C182   1.410       .  A
C182       Br183   1.921       .  S
C187        C188   1.406       .  A
C187        C192   1.407       .  A
C187        H194   1.083       .  S
C188        C189   1.409       .  A
C189        C190   1.399       .  A
C189       Br196   1.917       .  S
C190        C191   1.402       .  A
C190        H195   1.083       .  S
C191        C192   1.409       .  A
C192       Br193   1.913       .  S
C197        C198   1.409       .  A
C197       C1034   1.406       .  A
C197        H204   1.080       .  S
C198        C199   1.407       .  A
C199       C1032   1.403       .  A
C199      Br1038   1.917       .  S
C200        C201   1.405       .  A
C200       C1031   1.403   1_455  A
C200        H205   1.080       .  S
C201        C202   1.407       .  A
C202       C1029   1.407   1_455  A
C202      Br1035   1.917       .  S
Br203      C1034   1.918       .  S
Br206      C1031   1.917       .  S
C207        C208   1.402       .  A
C207        C212   1.404       .  A
C207        H214   1.083       .  S
C208        C209   1.412       .  A
C209        C210   1.398       .  A
C209       Br216   1.907       .  S
C210        C211   1.398       .  A
C210        H215   1.084       .  S
C211        C212   1.414       .  A
C212       Br213   1.914       .  S
C217        C218   1.409       .  A
C217       C1054   1.404   1_455  A
C217        H224   1.079       .  S
C218        C219   1.407   1_455  A
C219       C1052   1.391       .  A
C219       Br226   1.922       .  S
C220        C221   1.405       .  A
C220       C1051   1.390       .  A
C220        H225   1.078       .  S
C221        C222   1.404       .  A
C222       C1049   1.405       .  A
C222       Br223   1.914       .  S
C227        C228   1.406       .  A
C227        C232   1.405       .  A
C227        H234   1.083       .  S
C228        C229   1.421       .  A
C229        C230   1.401       .  A
C229       Br236   1.922       .  S
C230        C231   1.400       .  A
C230        H235   1.083       .  S
C231        C232   1.418       .  A
C232       Br233   1.924       .  S
C237        C238   1.410       .  A
C237        C242   1.407       .  A
C237        H244   1.084       .  S
C238        C239   1.421       .  A
C239        C240   1.405       .  A
C239       Br246   1.924       .  S
C240        C241   1.405       .  A
C240        H245   1.084       .  S
C241        C242   1.415       .  A
C242       Br243   1.920       .  S
C247        C248   1.394       .  A
C247        C252   1.384       .  A
C247        H254   1.084       .  S
C248        C249   1.405       .  A
C249        C250   1.404       .  A
C249       Br256   1.915       .  S
C250        C251   1.406       .  A
C250        H255   1.083       .  S
C251        C252   1.416       .  A
C252       Br253   1.926       .  S
C257        C258   1.407       .  A
C257        C262   1.408       .  A
C257        H264   1.084       .  S
C258        C259   1.399       .  A
C259        C260   1.391       .  A
C259       Br266   1.917       .  S
C260        C261   1.409       .  A
C260        H265   1.077       .  S
C261        C262   1.414       .  A
C262       Br263   1.918       .  S
C267        C268   1.404       .  A
C267        C272   1.393   1_545  A
C267        H274   1.084       .  S
C268        C478   1.482       .  S
C268        C269   1.414   1_556  A
C269        C270   1.406   1_545  A
C269       Br276   1.919       .  S
C270        C271   1.405       .  A
C270        H275   1.084       .  S
C271        C272   1.409   1_554  A
C272       Br273   1.921       .  S
C277        C278   1.409       .  A
C277        C282   1.404       .  A
C277        H284   1.084       .  S
C278        C279   1.418       .  A
C279        C280   1.391       .  A
C279       Br286   1.926       .  S
C280        C281   1.397       .  A
C280        H285   1.084       .  S
C281        C282   1.406       .  A
C282       Br283   1.916       .  S
C287        C288   1.405       .  A
C287        C292   1.413       .  A
C287        H294   1.084       .  S
C288        C289   1.408       .  A
C289        C290   1.390       .  A
C289       Br296   1.919       .  S
C290        C291   1.403       .  A
C290        H295   1.083       .  S
C291        C292   1.419       .  A
C292       Br293   1.917       .  S
C297        C298   1.408       .  A
C297        C302   1.405       .  A
C297        H304   1.083       .  S
C298        C299   1.417       .  A
C299        C300   1.401       .  A
C299       Br306   1.923       .  S
C300        C301   1.405       .  A
C300        H305   1.083       .  S
C301        C302   1.415       .  A
C302       Br303   1.920       .  S
C307        C312   1.393       .  A
C307        C724   1.407   1_554  A
C307        H314   1.087       .  S
C308        C309   1.408       .  A
C308        C723   1.408       .  A
C309       C1142   1.394       .  A
C309       Br316   1.922       .  S
C310       C1141   1.393       .  A
C310        C727   1.403       .  A
C310        H315   1.087       .  S
C311        C726   1.403   1_554  A
C311       C1144   1.402       .  A
C312       C1143   1.403   1_455  A
C312       Br313   1.920       .  S
C317        C318   1.406       .  A
C317        C322   1.403       .  A
C317        H324   1.083       .  S
C318        C319   1.427   1_554  A
C319        C736   1.389       .  A
C319       Br742   1.928       .  S
C320        C321   1.390       .  A
C320        C735   1.389       .  A
C320        H325   1.086       .  S
C321        C738   1.408       .  A
C322        C737   1.408   1_554  A
C322       Br323   1.916       .  S
Br326       C735   1.929       .  S
C327        C332   1.403       .  A
C327       C1160   1.411   1_455  A
C327        H334   1.083       .  S
C328        C329   1.418       .  A
C328       C1159   1.410       .  A
C329       C1162   1.416       .  A
C329       Br336   1.918       .  S
C330        C331   1.414       .  A
C330       C1161   1.415   1_455  A
C330       H1167   1.083   1_455  S
C331        C332   1.420       .  A
C332       Br333   1.926       .  S
H335       C1162   1.083       .  S
C337        C338   1.398       .  A
C337        C342   1.383       .  A
C337        H344   1.085       .  S
C338        C339   1.420       .  A
C339        C340   1.412       .  A
C339       Br346   1.917       .  S
C340        C341   1.405       .  A
C340        H345   1.085       .  S
C341        C342   1.417       .  A
C342       Br343   1.930       .  S
C347        C348   1.395       .  A
C347        C352   1.392       .  A
C347        H354   1.084       .  S
C348        C349   1.409       .  A
C349        C350   1.405       .  A
C349       Br356   1.916       .  S
C350        C351   1.406       .  A
C350        H355   1.084       .  S
C351        C352   1.415       .  A
C352       Br353   1.923       .  S
C357        C358   1.412       .  A
C357       C1194   1.411       .  A
C357        H364   1.083       .  S
C358       C1191   1.420       .  A
C359        C360   1.400       .  A
C359       C1190   1.422   1_455  A
C359       Br366   1.925       .  S
C360        C361   1.405       .  A
C360        H365   1.082       .  S
C361        C362   1.415       .  A
C362       C1189   1.409   1_455  A
C362      Br1195   1.919       .  S
Br363      C1194   1.919       .  S
C367        C372   1.399       .  A
C367       C1616   1.399   1_456  A
C367        H790   1.083       .  S
C368       C1615   1.399       .  A
C368        C785   1.411       .  A
C369        C784   1.411       .  A
C369       C1202   1.397       .  A
C369       Br376   1.920       .  S
C370        C371   1.399       .  A
C370       C1201   1.397   1_455  A
C370        H375   1.084       .  S
C371        C372   1.409   1_554  A
C372       Br373   1.914       .  S
H374        C783   1.083       .  S
C377        C382   1.407       .  A
C377        C794   1.408       .  A
C377        H384   1.083       .  S
C378        C379   1.404       .  A
C378        C793   1.409   1_554  A
C379        C380   1.396       .  A
C379       Br386   1.919       .  S
C380        C797   1.408       .  A
C380        H385   1.083       .  S
C381        C382   1.410       .  A
C381        C796   1.408       .  A
C382       Br383   1.918       .  S
C387        C388   1.410   1_556  A
C387        C392   1.406       .  A
C387        H394   1.083       .  S
C388        C434   1.489   1_554  S
C388        C389   1.415       .  A
C389        C390   1.396       .  A
C389       Br396   1.921       .  S
C390        C391   1.400       .  A
C390        H395   1.083       .  S
C391        C392   1.409   1_554  A
C392       Br393   1.915       .  S
C397        C398   1.409       .  A
C397        C402   1.380       .  A
C397        H404   1.082       .  S
C398        C399   1.410       .  A
C399        C400   1.406       .  A
C399       Br406   1.917       .  S
C400        C401   1.409       .  A
C400        H405   1.083       .  S
C401        C402   1.405       .  A
C402       Br403   1.923       .  S
C407        C408   1.407       .  A
C407        C412   1.401       .  A
C407        H414   1.083       .  S
C408        C409   1.419       .  A
C409        C410   1.382       .  A
C409       Br416   1.926       .  S
C410        C411   1.391       .  A
C410        H415   1.084       .  S
C411        C412   1.404       .  A
C412       Br413   1.917       .  S
O417        C425   1.265       .  A
O418        C419   1.263       .  A
C419        O420   1.259   1_554  A
C419        C784   1.469       .  S
O420       Cr436   1.989       .  S
O421        C422   1.257       .  A
O421       Cr436   1.991       .  S
C422        O423   1.253       .  A
C422        C817   1.468       .  S
O423       Cr437   1.949       .  S
O424        C425   1.282       .  A
O424       Cr437   2.047       .  S
C425        C774   1.506       .  S
O426       Cr435   1.996       .  S
O427        C428   1.269       .  A
O427       Cr435   1.994       .  S
C428        O429   1.263       .  A
C428        C824   1.472       .  S
O430        C431   1.256   1_554  A
O430       Cr436   1.951   1_554  S
C431        O432   1.272       .  A
C431        C797   1.487   1_556  S
O432       Cr437   2.035       .  S
O433        C434   1.254       .  A
O433       Cr437   1.983       .  S
Cr436       O438   1.775       .  S
Cr437       O438   1.772       .  S
O439        C447   1.272       .  A
O439       Cr457   1.966       .  S
O440        C441   1.253       .  A
O440       Cr457   1.987       .  S
C441        O442   1.250       .  A
C441        C727   1.458       .  S
O442       Cr458   1.981       .  S
O443        C444   1.260       .  A
O443       Cr458   2.002       .  S
C444        O445   1.259       .  A
C444        C754   1.488       .  S
O445       Cr459   1.963       .  S
O446        C447   1.290       .  A
O446       Cr459   2.073       .  S
C447        C744   1.514       .  S
O448        C456   1.250       .  A
O448       Cr457   1.990       .  S
O449        C450   1.269       .  A
C450        O451   1.278       .  A
C450        C764   1.466       .  S
O452        C453   1.250       .  A
O452       Cr458   1.934       .  S
C453        O454   1.272       .  A
C453        C734   1.486       .  S
O454       Cr459   2.026       .  S
O455        C456   1.250       .  A
O455       Cr459   2.001       .  S
C456        C807   1.481       .  S
Cr457       O460   1.774       .  S
Cr458       O460   1.778       .  S
Cr459       O460   1.766       .  S
O461        C469   1.265       .  A
O462        C463   1.263       .  A
C463        O464   1.261       .  A
C463        C737   1.459       .  S
O464       Cr480   1.985       .  S
O465        C466   1.263       .  A
O465       Cr480   2.021       .  S
C466        O467   1.258       .  A
C466        C707   1.492       .  S
O467       Cr481   1.970       .  S
O468        C469   1.271       .  A
O468       Cr481   2.021       .  S
C469        C717   1.490       .  S
O470       Cr479   1.994       .  S
O471        C472   1.263       .  A
O471       Cr479   1.991       .  S
C472        O473   1.267       .  A
C472        C697   1.466       .  S
O474        C475   1.257       .  A
O474       Cr480   1.946       .  S
C475        O476   1.267       .  A
C475        C724   1.466       .  S
O476       Cr481   2.010       .  S
O477        C478   1.256       .  A
O477       Cr481   1.990       .  S
Cr480       O482   1.773       .  S
Cr481       O482   1.771       .  S
O483        C491   1.273       .  A
O483       Cr501   2.025       .  S
O484        C485   1.254       .  A
O484       Cr501   1.964       .  S
C485        O486   1.264       .  A
C485        C794   1.476       .  S
O486       Cr502   2.025       .  S
O487        C488   1.263       .  A
O487       Cr502   1.981       .  S
C488        O489   1.267       .  A
C488        C674   1.471       .  S
O489       Cr503   2.016       .  S
O490        C491   1.262       .  A
O490       Cr503   1.983       .  S
C491        C654   1.505       .  S
O492        C500   1.255       .  A
O492       Cr501   1.968       .  S
O493        C494   1.269       .  A
C494        O495   1.256       .  A
C494        C664   1.461       .  S
O496        C497   1.267       .  A
O496       Cr502   2.005       .  S
C497        O498   1.262       .  A
C497        C787   1.467       .  S
O498       Cr503   1.988       .  S
O499        C500   1.266       .  A
O499       Cr503   2.017       .  S
C500        C687   1.478       .  S
Cr501       O504   1.768       .  S
Cr502       O504   1.769       .  S
Cr503       O504   1.770       .  S
O505        C513   1.278       .  A
O505       Cr523   2.042       .  S
O506        C507   1.256       .  A
O506       Cr523   1.966       .  S
C507        O508   1.258       .  A
C507        C634   1.478       .  S
O508       Cr524   1.993       .  S
O509        C510   1.257       .  A
O509       Cr524   1.982       .  S
C510        O511   1.257       .  A
C510        C694   1.481       .  S
O511       Cr525   1.986       .  S
O512        C513   1.267       .  A
O512       Cr525   1.986       .  S
C513        C747   1.516       .  S
O514        C522   1.258       .  A
O514       Cr523   1.995       .  S
O515        C516   1.272       .  A
O515       Cr523   2.035       .  S
C516        O517   1.256       .  A
C516        C704   1.479       .  S
O517       Cr524   1.943       .  S
O518        C519   1.268       .  A
O518       Cr524   2.003       .  S
C519        O520   1.272       .  A
C519        C624   1.480       .  S
O520       Cr525   2.009       .  S
O521        C522   1.256       .  A
O521       Cr525   1.994       .  S
C522        C644   1.496       .  S
Cr523       O526   1.780       .  S
Cr524       O526   1.780       .  S
Cr525       O526   1.773       .  S
O527        C535   1.273       .  A
O527       Cr545   2.032       .  S
O528        C529   1.256       .  A
O528       Cr545   1.984       .  S
C529        O530   1.260       .  A
C529        C617   1.479       .  S
O530       Cr546   2.009       .  S
O531        C532   1.264       .  A
O531       Cr546   1.999       .  S
C532        O533   1.256       .  A
C532        C667   1.470       .  S
O533       Cr547   1.980       .  S
O534        C535   1.265       .  A
O534       Cr547   1.980       .  S
C535        C777   1.500       .  S
O536        C544   1.261       .  A
O536       Cr545   1.993       .  S
O537        C538   1.275       .  A
O537       Cr545   2.039       .  S
C538        O539   1.260       .  A
C538        C677   1.491       .  S
O539       Cr546   1.948       .  S
O540        C541   1.268       .  A
O540       Cr546   2.007       .  S
C541        O542   1.269       .  A
C541        C607   1.478       .  S
O542       Cr547   2.007       .  S
O543        C544   1.255       .  A
O543       Cr547   1.989       .  S
C544        C647   1.487       .  S
Cr545       O548   1.775       .  S
Cr546       O548   1.775       .  S
Cr547       O548   1.770       .  S
O549        C557   1.278       .  A
O549       Cr567   2.032       .  S
O550        C551   1.258       .  A
O550       Cr567   1.980       .  S
C551        O552   1.262       .  A
C551        C627   1.481       .  S
O552       Cr568   2.012       .  S
O553        C554   1.264       .  A
O553       Cr568   1.991       .  S
C554        O555   1.266       .  A
C554        C767   1.479       .  S
O555       Cr569   2.002       .  S
O556        C557   1.265       .  A
O556       Cr569   1.969       .  S
C557        C714   1.494       .  S
O558        C566   1.260       .  A
O558       Cr567   1.993       .  S
O559        C560   1.274       .  A
O559       Cr567   2.049       .  S
C560        O561   1.248       .  A
C560        C757   1.480       .  S
O561       Cr568   1.934       .  S
O562        C563   1.262       .  A
O562       Cr568   1.987       .  S
C563        O564   1.266       .  A
C563        C637   1.476       .  S
O564       Cr569   2.010       .  S
O565        C566   1.255       .  A
O565       Cr569   1.989       .  S
C566        C594   1.491       .  S
Cr567       O570   1.772       .  S
Cr568       O570   1.763       .  S
Cr569       O570   1.767       .  S
O571        C579   1.275       .  A
O571       Cr589   2.025       .  S
O572        C573   1.257       .  A
O572       Cr589   1.986       .  S
C573        O574   1.262       .  A
C573        C604   1.480       .  S
O574       Cr590   2.017       .  S
O575        C576   1.260       .  A
O575       Cr590   1.969       .  S
C576        O577   1.267       .  A
C576        C827   1.452       .  S
O577       Cr591   1.993       .  S
O578        C579   1.267       .  A
O578       Cr591   1.988       .  S
C579        C657   1.500       .  S
O580        C588   1.259       .  A
O580       Cr589   1.989       .  S
O581        C582   1.274       .  A
O581       Cr589   2.041       .  S
C582        O583   1.252       .  A
C582        C814   1.481       .  S
O583       Cr590   1.927       .  S
O584        C585   1.262       .  A
O584       Cr590   2.001       .  S
C585        O586   1.267       .  A
C585        C614   1.483       .  S
O586       Cr591   2.020       .  S
O587        C588   1.258       .  A
O587       Cr591   1.990       .  S
C588        C597   1.473       .  S
Cr589       O592   1.770       .  S
Cr590       O592   1.769       .  S
Cr591       O592   1.764       .  S
C593        C594   1.406       .  A
C593        C598   1.399   1_545  A
C593        H600   1.082       .  S
C594        C595   1.422       .  A
C595        C596   1.401   1_545  A
C595       Br602   1.923       .  S
C596        C597   1.397       .  A
C596        H601   1.083       .  S
C597        C598   1.409       .  A
C598       Br599   1.921       .  S
C603        C604   1.405       .  A
C603        C608   1.407       .  A
C603        H610   1.083       .  S
C604        C605   1.409       .  A
C605        C606   1.400       .  A
C605       Br612   1.917       .  S
C606        C607   1.402       .  A
C606        H611   1.083       .  S
C607        C608   1.408       .  A
C608       Br609   1.913       .  S
C613        C614   1.409       .  A
C613       C1450   1.407       .  A
C613        H620   1.080       .  S
C614        C615   1.407       .  A
C615       C1448   1.404       .  A
C615      Br1454   1.917       .  S
C616       C1447   1.402   1_455  A
C616        C617   1.404       .  A
C616        H621   1.080       .  S
C617        C618   1.406       .  A
C618       C1445   1.406   1_455  A
C618      Br1451   1.918       .  S
Br619      C1450   1.917       .  S
Br622      C1447   1.917       .  S
C623        C624   1.402       .  A
C623        C628   1.404       .  A
C623        H630   1.083       .  S
C624        C625   1.412       .  A
C625        C626   1.399       .  A
C625       Br632   1.907       .  S
C626        C627   1.398       .  A
C626        H631   1.084       .  S
C627        C628   1.414       .  A
C628       Br629   1.914       .  S
C633        C634   1.410       .  A
C633       C1470   1.404   1_455  A
C633        H640   1.080       .  S
C634        C635   1.407   1_455  A
C635       C1468   1.389       .  A
C635       Br642   1.923       .  S
C636       C1467   1.391       .  A
C636        C637   1.405       .  A
C636        H641   1.079       .  S
C637        C638   1.404       .  A
C638       C1465   1.404       .  A
C638       Br639   1.915       .  S
C643        C644   1.407       .  A
C643        C648   1.404       .  A
C643        H650   1.083       .  S
C644        C645   1.421       .  A
C645        C646   1.400       .  A
C645       Br652   1.922       .  S
C646        C647   1.399       .  A
C646        H651   1.083       .  S
C647        C648   1.418       .  A
C648       Br649   1.924       .  S
C653        C654   1.410       .  A
C653        C658   1.406       .  A
C653        H660   1.084       .  S
C654        C655   1.421       .  A
C655        C656   1.405       .  A
C655       Br662   1.924       .  S
C656        C657   1.406       .  A
C656        H661   1.084       .  S
C657        C658   1.415       .  A
C658       Br659   1.920       .  S
C663        C664   1.394       .  A
C663        C668   1.383       .  A
C663        H670   1.084       .  S
C664        C665   1.406       .  A
C665        C666   1.406       .  A
C665       Br672   1.915       .  S
C666        C667   1.407       .  A
C666        H671   1.083       .  S
C667        C668   1.415       .  A
C668       Br669   1.925       .  S
C673        C674   1.407       .  A
C673        C678   1.408       .  A
C673        H680   1.084       .  S
C674        C675   1.399       .  A
C675        C676   1.390       .  A
C675       Br682   1.917       .  S
C676        C677   1.409       .  A
C676        H681   1.076       .  S
C677        C678   1.415       .  A
C678       Br679   1.918       .  S
C683        C684   1.404       .  A
C683        C688   1.394   1_545  A
C683        H690   1.084       .  S
C684        C685   1.414       .  A
C685        C686   1.407   1_545  A
C685       Br692   1.919       .  S
C686        C687   1.406       .  A
C686        H691   1.084       .  S
C687        C688   1.409       .  A
C688       Br689   1.921       .  S
C693        C694   1.409       .  A
C693        C698   1.403       .  A
C693        H700   1.084       .  S
C694        C695   1.418       .  A
C695        C696   1.390       .  A
C695       Br702   1.926       .  S
C696        C697   1.396       .  A
C696        H701   1.084       .  S
C697        C698   1.406       .  A
C698       Br699   1.916       .  S
C703        C704   1.405       .  A
C703        C708   1.412       .  A
C703        H710   1.084       .  S
C704        C705   1.408       .  A
C705        C706   1.390       .  A
C705       Br712   1.920       .  S
C706        C707   1.403       .  A
C706        H711   1.083       .  S
C707        C708   1.419       .  A
C708       Br709   1.917       .  S
C713        C714   1.407       .  A
C713        C718   1.403       .  A
C713        H720   1.083       .  S
C714        C715   1.417       .  A
C715        C716   1.401       .  A
C715       Br722   1.923       .  S
C716        C717   1.405       .  A
C716        H721   1.083       .  S
C717        C718   1.415       .  A
C718       Br719   1.920       .  S
C723        C728   1.394       .  A
C723        H730   1.083       .  S
C724        C725   1.409       .  A
C725       C1558   1.393       .  A
C725       Br732   1.922       .  S
C726       C1557   1.394       .  A
C726        H731   1.083       .  S
C727       C1560   1.403       .  A
C728       C1559   1.402   1_455  A
C728       Br729   1.920       .  S
C733        C734   1.406       .  A
C733        C738   1.403       .  A
C733        H740   1.083       .  S
C734        C735   1.427       .  A
C736        C737   1.390       .  A
C736        H741   1.086       .  S
C738       Br739   1.916       .  S
C743       C1576   1.411   1_455  A
C743        C748   1.403       .  A
C743        H750   1.083       .  S
C744       C1575   1.411       .  A
C744        C745   1.417       .  A
C745       C1578   1.415       .  A
C745       Br752   1.918       .  S
C746       C1577   1.416   1_455  A
C746        C747   1.414       .  A
C746       H1583   1.083   1_455  S
C747        C748   1.421       .  A
C748       Br749   1.926       .  S
H751       C1578   1.083       .  S
C753        C754   1.398       .  A
C753        C758   1.382       .  A
C753        H760   1.085       .  S
C754        C755   1.420       .  A
C755        C756   1.413       .  A
C755       Br762   1.917       .  S
C756        C757   1.405       .  A
C756        H761   1.085       .  S
C757        C758   1.416       .  A
C758       Br759   1.931       .  S
C763        C764   1.395       .  A
C763        C768   1.391       .  A
C763        H770   1.081       .  S
C764        C765   1.409       .  A
C765        C766   1.406       .  A
C765       Br772   1.916       .  S
C766        C767   1.406       .  A
C766        H771   1.082       .  S
C767        C768   1.414       .  A
C768       Br769   1.923       .  S
C773        C774   1.411       .  A
C773       C1610   1.410       .  A
C773        H780   1.084       .  S
C774       C1607   1.422       .  A
C775       C1606   1.420   1_455  A
C775        C776   1.399       .  A
C775       Br782   1.925       .  S
C776        C777   1.405       .  A
C776        H781   1.080       .  S
C777        C778   1.415       .  A
C778       C1605   1.411   1_455  A
C778      Br1611   1.919       .  S
Br779      C1610   1.919       .  S
C783       C1200   1.398   1_455  A
C783        C788   1.399       .  A
C784       C1199   1.398   1_554  A
C785       C1618   1.398       .  A
C785       Br792   1.920       .  S
C786       C1617   1.397   1_455  A
C786        C787   1.399       .  A
C786        H791   1.084       .  S
C787        C788   1.410       .  A
C788       Br789   1.913       .  S
C793        C798   1.409       .  A
C793        H800   1.083       .  S
C794        C795   1.404       .  A
C795        C796   1.396       .  A
C795       Br802   1.919       .  S
C796        H801   1.083       .  S
C797        C798   1.411   1_554  A
C798       Br799   1.918       .  S
C803        C804   1.410       .  A
C803        C808   1.406       .  A
C803        H810   1.083       .  S
C804        C805   1.416       .  A
C805        C806   1.397       .  A
C805       Br812   1.922       .  S
C806        C807   1.401       .  A
C806        H811   1.083       .  S
C807        C808   1.410       .  A
C808       Br809   1.915       .  S
C813        C814   1.409       .  A
C813        C818   1.379       .  A
C813        H820   1.082       .  S
C814        C815   1.411       .  A
C815        C816   1.405       .  A
C815       Br822   1.917       .  S
C816        C817   1.409       .  A
C816        H821   1.084       .  S
C817        C818   1.405       .  A
C818       Br819   1.925       .  S
C823        C824   1.407       .  A
C823        C828   1.402       .  A
C823        H830   1.083       .  S
C824        C825   1.419       .  A
C825        C826   1.383       .  A
C825       Br832   1.926       .  S
C826        C827   1.391       .  A
C826        H831   1.084       .  S
C827        C828   1.405       .  A
C828       Br829   1.917       .  S
O833        C841   1.264       .  A
O833      Cr1267   1.969       .  S
O834        C835   1.263       .  A
O834      Cr1267   2.005       .  S
C835        O836   1.259       .  A
C835       C1200   1.467       .  S
O836       Cr852   1.988       .  S
O837        C838   1.257       .  A
O837       Cr852   1.991       .  S
C838        O839   1.253       .  A
C838       C1233   1.469       .  S
O839       Cr853   1.951       .  S
O840        C841   1.281       .  A
O840       Cr853   2.046       .  S
C841       C1190   1.505       .  S
O842       C1266   1.256   1_554  A
O842       Cr851   1.996       .  S
O843        C844   1.268       .  A
O843       Cr851   1.994       .  S
C844        O845   1.263       .  A
C844       C1240   1.472       .  S
O845      Cr1268   1.986   1_554  S
O846        C847   1.256       .  A
O846       Cr852   1.951       .  S
C847        O848   1.273       .  A
C847       C1213   1.488       .  S
O848       Cr853   2.036       .  S
O849        C850   1.254       .  A
O849       Cr853   1.983       .  S
C850       O1258   1.257       .  A
C850       C1636   1.489       .  S
Cr851      O1249   1.970   1_554  S
Cr851      O1250   2.004       .  S
Cr851      O1270   1.771   1_554  S
Cr852      O1261   1.983       .  S
Cr852       O854   1.774       .  S
Cr853       O854   1.771       .  S
O854      Cr1267   1.770       .  S
O855        C863   1.272       .  A
O855       Cr873   1.965       .  S
O856        C857   1.253   1_556  A
O856       Cr873   1.987   1_556  S
C857        O858   1.249       .  A
C857       C1143   1.458       .  S
O858       Cr874   1.980       .  S
O859        C860   1.260       .  A
O859       Cr874   2.002       .  S
C860        O861   1.259       .  A
C860       C1170   1.489       .  S
O861       Cr875   1.964       .  S
O862        C863   1.291       .  A
O862       Cr875   2.073       .  S
C863       C1160   1.515       .  S
O864        C872   1.250       .  A
O864       Cr873   1.990       .  S
O865        C866   1.269       .  A
O865      Cr1289   1.982       .  S
C866        O867   1.279       .  A
C866       C1180   1.467       .  S
O867      Cr1290   2.024       .  S
O868        C869   1.250       .  A
O868       Cr874   1.933       .  S
C869        O870   1.273       .  A
C869       C1150   1.487       .  S
O870       Cr875   2.028       .  S
O871        C872   1.250       .  A
O871       Cr875   2.001       .  S
C872       C1223   1.481       .  S
Cr873      O1281   1.981   1_554  S
Cr873       O876   1.774       .  S
Cr874      O1283   2.023   1_554  S
Cr874       O876   1.777       .  S
Cr875       O876   1.765       .  S
O877        C885   1.264       .  A
O877      Cr1311   1.974       .  S
O878        C879   1.263       .  A
O878      Cr1311   1.996       .  S
C879        O880   1.261       .  A
C879       C1153   1.459       .  S
O880       Cr896   1.984       .  S
O881        C882   1.264       .  A
O881       Cr896   2.021       .  S
C882        O883   1.258       .  A
C882       C1123   1.492       .  S
O883       Cr897   1.970       .  S
O884        C885   1.272       .  A
O884       Cr897   2.022       .  S
C885       C1133   1.490       .  S
O886       C1310   1.261       .  A
O886       Cr895   1.994       .  S
O887        C888   1.263       .  A
O887       Cr895   1.990   1_554  S
C888        O889   1.267       .  A
C888       C1113   1.465       .  S
O889      Cr1312   1.999   1_554  S
O890        C891   1.256       .  A
O890       Cr896   1.945       .  S
C891        O892   1.267       .  A
C891       C1140   1.466       .  S
O892       Cr897   2.011       .  S
O893        C894   1.256       .  A
O893       Cr897   1.990       .  S
C894       O1302   1.261       .  A
C894       C1516   1.482       .  S
Cr895      O1293   1.974       .  S
Cr895      O1294   1.997       .  S
Cr895      O1314   1.765       .  S
Cr896      O1305   2.000       .  S
Cr896       O898   1.773       .  S
Cr897       O898   1.771       .  S
O898      Cr1311   1.765       .  S
O899        C907   1.273       .  A
O899       Cr917   2.026       .  S
O900        C901   1.254       .  A
O900       Cr917   1.963       .  S
C901        O902   1.264       .  A
C901       C1210   1.476       .  S
O902       Cr918   2.026       .  S
O903        C904   1.262       .  A
O903       Cr918   1.981       .  S
C904        O905   1.266       .  A
C904       C1090   1.471       .  S
O905       Cr919   2.016       .  S
O906        C907   1.263       .  A
O906       Cr919   1.984       .  S
C907       C1070   1.506       .  S
O908        C916   1.255       .  A
O908       Cr917   1.968       .  S
O909        C910   1.269       .  A
O909      Cr1333   2.024       .  S
C910        O911   1.255       .  A
C910       C1080   1.460       .  S
O911      Cr1334   1.943       .  S
O912        C913   1.267       .  A
O912       Cr918   2.006       .  S
C913        O914   1.262       .  A
C913       C1203   1.468       .  S
O914       Cr919   1.989       .  S
O915        C916   1.265       .  A
O915       Cr919   2.016       .  S
C916       C1103   1.478       .  S
Cr917      O1325   2.022   1_554  S
Cr917       O920   1.768       .  S
Cr918      O1327   1.941   1_554  S
Cr918       O920   1.769       .  S
Cr919       O920   1.770       .  S
O921        C929   1.278       .  A
O921       Cr939   2.042       .  S
O922        C923   1.256       .  A
O922       Cr939   1.968       .  S
C923        O924   1.258       .  A
C923       C1050   1.479       .  S
O924       Cr940   1.994       .  S
O925        C926   1.257       .  A
O925       Cr940   1.983       .  S
C926        O927   1.256       .  A
C926       C1110   1.481       .  S
O927       Cr941   1.984       .  S
O928        C929   1.267       .  A
O928       Cr941   1.986       .  S
C929       C1163   1.516       .  S
O930        C938   1.258       .  A
O930       Cr939   1.995       .  S
O931        C932   1.272       .  A
O931       Cr939   2.036       .  S
C932        O933   1.256       .  A
C932       C1120   1.480       .  S
O933       Cr940   1.944       .  S
O934        C935   1.268       .  A
O934       Cr940   2.003       .  S
C935        O936   1.272       .  A
C935       C1040   1.479       .  S
O936       Cr941   2.008       .  S
O937        C938   1.255       .  A
O937       Cr941   1.993       .  S
C938       C1060   1.496       .  S
Cr939       O942   1.779       .  S
Cr940       O942   1.780       .  S
Cr941       O942   1.773       .  S
O943        C951   1.273       .  A
O943       Cr961   2.031       .  S
O944        C945   1.256       .  A
O944       Cr961   1.985       .  S
C945        O946   1.260       .  A
C945       C1033   1.481       .  S
O946       Cr962   2.010       .  S
O947        C948   1.265       .  A
O947       Cr962   2.000       .  S
C948        O949   1.256       .  A
C948       C1083   1.470       .  S
O949       Cr963   1.979       .  S
O950        C951   1.265       .  A
O950       Cr963   1.981       .  S
C951       C1193   1.500       .  S
O952        C960   1.261       .  A
O952       Cr961   1.993       .  S
O953        C954   1.275       .  A
O953       Cr961   2.038       .  S
C954        O955   1.260       .  A
C954       C1093   1.490       .  S
O955       Cr962   1.948       .  S
O956        C957   1.268       .  A
O956       Cr962   2.008       .  S
C957        O958   1.270       .  A
C957       C1023   1.479       .  S
O958       Cr963   2.008       .  S
O959        C960   1.255       .  A
O959       Cr963   1.989       .  S
C960       C1063   1.487       .  S
Cr961       O964   1.775       .  S
Cr962       O964   1.775       .  S
Cr963       O964   1.771       .  S
O965        C973   1.278       .  A
O965       Cr983   2.032       .  S
O966        C967   1.258       .  A
O966       Cr983   1.979       .  S
C967        O968   1.262       .  A
C967       C1043   1.481       .  S
O968       Cr984   2.014       .  S
O969        C970   1.265       .  A
O969       Cr984   1.992       .  S
C970        O971   1.267       .  A
C970       C1183   1.480       .  S
O971       Cr985   2.002       .  S
O972        C973   1.265       .  A
O972       Cr985   1.969       .  S
C973       C1130   1.494       .  S
O974        C982   1.260       .  A
O974       Cr983   1.992       .  S
O975        C976   1.274       .  A
O975       Cr983   2.049       .  S
C976        O977   1.247       .  A
C976       C1173   1.479       .  S
O977       Cr984   1.935       .  S
O978        C979   1.262       .  A
O978       Cr984   1.987       .  S
C979        O980   1.266       .  A
C979       C1053   1.475       .  S
O980       Cr985   2.010       .  S
O981        C982   1.256       .  A
O981       Cr985   1.990       .  S
C982       C1010   1.491       .  S
Cr983       O986   1.772       .  S
Cr984       O986   1.763       .  S
Cr985       O986   1.766       .  S
O987        C995   1.275       .  A
O987      Cr1005   2.027       .  S
O988        C989   1.257       .  A
O988      Cr1005   1.985       .  S
C989        O990   1.262       .  A
C989       C1020   1.480       .  S
O990      Cr1006   2.018       .  S
O991        C992   1.259       .  A
O991      Cr1006   1.969       .  S
C992        O993   1.266       .  A
C992       C1243   1.452       .  S
O993      Cr1007   1.994       .  S
O994        C995   1.267       .  A
O994      Cr1007   1.989       .  S
C995       C1073   1.501       .  S
O996       C1004   1.259       .  A
O996      Cr1005   1.989       .  S
O997        C998   1.274       .  A
O997      Cr1005   2.042       .  S
C998        O999   1.252       .  A
C998       C1230   1.482       .  S
O999      Cr1006   1.927       .  S
O1000      C1001   1.262       .  A
O1000     Cr1006   2.001       .  S
C1001      O1002   1.267       .  A
C1001      C1030   1.482       .  S
O1002     Cr1007   2.019       .  S
O1003      C1004   1.258       .  A
O1003     Cr1007   1.991       .  S
C1004      C1013   1.473       .  S
Cr1005     O1008   1.770       .  S
Cr1006     O1008   1.769       .  S
Cr1007     O1008   1.765       .  S
C1009      C1010   1.407       .  A
C1009      C1014   1.400   1_545  A
C1009      H1016   1.082       .  S
C1010      C1011   1.422       .  A
C1011      C1012   1.401   1_545  A
C1011     Br1018   1.923       .  S
C1012      C1013   1.398       .  A
C1012      H1017   1.083       .  S
C1013      C1014   1.409       .  A
C1014     Br1015   1.921       .  S
C1019      C1020   1.405       .  A
C1019      C1024   1.407       .  A
C1019      H1026   1.083       .  S
C1020      C1021   1.409       .  A
C1021      C1022   1.400       .  A
C1021     Br1028   1.917       .  S
C1022      C1023   1.403       .  A
C1022      H1027   1.083       .  S
C1023      C1024   1.409       .  A
C1024     Br1025   1.913       .  S
C1029      C1030   1.409       .  A
C1029      H1036   1.080       .  S
C1030      C1031   1.407       .  A
C1032      C1033   1.405       .  A
C1032      H1037   1.080       .  S
C1033      C1034   1.406       .  A
C1039      C1040   1.401       .  A
C1039      C1044   1.404       .  A
C1039      H1046   1.083       .  S
C1040      C1041   1.411       .  A
C1041      C1042   1.399       .  A
C1041     Br1048   1.907       .  S
C1042      C1043   1.399       .  A
C1042      H1047   1.084       .  S
C1043      C1044   1.414       .  A
C1044     Br1045   1.914       .  S
C1049      C1050   1.410       .  A
C1049      H1056   1.080       .  S
C1050      C1051   1.407       .  A
C1051     Br1058   1.922       .  S
C1052      C1053   1.405       .  A
C1052      H1057   1.079       .  S
C1053      C1054   1.404       .  A
C1054     Br1055   1.915       .  S
C1059      C1060   1.406       .  A
C1059      C1064   1.404       .  A
C1059      H1066   1.083       .  S
C1060      C1061   1.421       .  A
C1061      C1062   1.399       .  A
C1061     Br1068   1.922       .  S
C1062      C1063   1.399       .  A
C1062      H1067   1.083       .  S
C1063      C1064   1.418       .  A
C1064     Br1065   1.924       .  S
C1069      C1070   1.410       .  A
C1069      C1074   1.407       .  A
C1069      H1076   1.084       .  S
C1070      C1071   1.421       .  A
C1071      C1072   1.405       .  A
C1071     Br1078   1.924       .  S
C1072      C1073   1.406       .  A
C1072      H1077   1.083       .  S
C1073      C1074   1.416       .  A
C1074     Br1075   1.920       .  S
C1079      C1080   1.394       .  A
C1079      C1084   1.383       .  A
C1079      H1086   1.084       .  S
C1080      C1081   1.406       .  A
C1081      C1082   1.406       .  A
C1081     Br1088   1.915       .  S
C1082      C1083   1.407       .  A
C1082      H1087   1.083       .  S
C1083      C1084   1.416       .  A
C1084     Br1085   1.925       .  S
C1089      C1090   1.407       .  A
C1089      C1094   1.407       .  A
C1089      H1096   1.084       .  S
C1090      C1091   1.399       .  A
C1091      C1092   1.390       .  A
C1091     Br1098   1.917       .  S
C1092      C1093   1.409       .  A
C1092      H1097   1.076       .  S
C1093      C1094   1.415       .  A
C1094     Br1095   1.918       .  S
C1099      C1100   1.404       .  A
C1099      C1104   1.393   1_545  A
C1099      H1106   1.084       .  S
C1100      C1310   1.485       .  S
C1100      C1101   1.414   1_556  A
C1101      C1102   1.407   1_545  A
C1101     Br1108   1.919       .  S
C1102      C1103   1.406       .  A
C1102      H1107   1.084       .  S
C1103      C1104   1.409   1_554  A
C1104     Br1105   1.921       .  S
C1109      C1110   1.409       .  A
C1109      C1114   1.403       .  A
C1109      H1116   1.084       .  S
C1110      C1111   1.419       .  A
C1111      C1112   1.389       .  A
C1111     Br1118   1.927       .  S
C1112      C1113   1.396       .  A
C1112      H1117   1.084       .  S
C1113      C1114   1.405       .  A
C1114     Br1115   1.916       .  S
C1119      C1120   1.405       .  A
C1119      C1124   1.413       .  A
C1119      H1126   1.084       .  S
C1120      C1121   1.408       .  A
C1121      C1122   1.390       .  A
C1121     Br1128   1.919       .  S
C1122      C1123   1.403       .  A
C1122      H1127   1.083       .  S
C1123      C1124   1.419       .  A
C1124     Br1125   1.917       .  S
C1129      C1130   1.407       .  A
C1129      C1134   1.403       .  A
C1129      H1136   1.083       .  S
C1130      C1131   1.417       .  A
C1131      C1132   1.400       .  A
C1131     Br1138   1.923       .  S
C1132      C1133   1.405       .  A
C1132      H1137   1.083       .  S
C1133      C1134   1.415       .  A
C1134     Br1135   1.920       .  S
C1139      C1556   1.408   1_554  A
C1139      C1144   1.394       .  A
C1139      H1146   1.084       .  S
C1140      C1555   1.407       .  A
C1140      C1141   1.409       .  A
C1141     Br1148   1.922       .  S
C1142      C1559   1.403   1_455  A
C1142      H1147   1.083   1_455  S
C1143      C1558   1.402   1_654  A
C1144     Br1145   1.921       .  S
C1149      C1150   1.406       .  A
C1149      C1154   1.404       .  A
C1149      H1156   1.083       .  S
C1150      C1151   1.428   1_554  A
C1151      C1568   1.389       .  A
C1151     Br1574   1.929       .  S
C1152      C1567   1.388       .  A
C1152      C1153   1.390       .  A
C1152      H1157   1.086       .  S
C1153      C1570   1.409       .  A
C1154      C1569   1.409   1_554  A
C1154     Br1155   1.916       .  S
Br1158     C1567   1.928       .  S
C1159      C1164   1.404       .  A
C1159      H1166   1.083       .  S
C1160      C1161   1.417       .  A
C1161     Br1168   1.918       .  S
C1162      C1163   1.414       .  A
C1163      C1164   1.421       .  A
C1164     Br1165   1.926       .  S
C1169      C1170   1.399       .  A
C1169      C1174   1.383       .  A
C1169      H1176   1.085       .  S
C1170      C1171   1.420       .  A
C1171      C1172   1.412       .  A
C1171     Br1178   1.917       .  S
C1172      C1173   1.405       .  A
C1172      H1177   1.085       .  S
C1173      C1174   1.416       .  A
C1174     Br1175   1.930       .  S
C1179      C1180   1.395       .  A
C1179      C1184   1.391       .  A
C1179      H1186   1.081       .  S
C1180      C1181   1.409       .  A
C1181      C1182   1.407       .  A
C1181     Br1188   1.917       .  S
C1182      C1183   1.407       .  A
C1182      H1187   1.082       .  S
C1183      C1184   1.415       .  A
C1184     Br1185   1.923       .  S
C1189      C1190   1.411       .  A
C1189      H1196   1.084       .  S
C1191      C1192   1.399       .  A
C1191     Br1198   1.925       .  S
C1192      C1193   1.405       .  A
C1192      H1197   1.080       .  S
C1193      C1194   1.415       .  A
C1199      C1204   1.399       .  A
C1199      H1622   1.083       .  S
C1200      C1617   1.411       .  A
C1201      C1616   1.411       .  A
C1201     Br1208   1.920       .  S
C1202      C1203   1.399       .  A
C1202      H1207   1.084       .  S
C1203      C1204   1.410   1_554  A
C1204     Br1205   1.913       .  S
H1206      C1615   1.083       .  S
C1209      C1626   1.409       .  A
C1209      C1214   1.409       .  A
C1209      H1216   1.083       .  S
C1210      C1625   1.408   1_554  A
C1210      C1211   1.404       .  A
C1211      C1212   1.396       .  A
C1211     Br1218   1.919       .  S
C1212      C1629   1.408       .  A
C1212      H1217   1.082       .  S
C1213      C1628   1.408       .  A
C1213      C1214   1.411       .  A
C1214     Br1215   1.918       .  S
C1219      C1220   1.410   1_556  A
C1219      C1224   1.406       .  A
C1219      H1226   1.083       .  S
C1220      C1266   1.490   1_554  S
C1220      C1221   1.416       .  A
C1221      C1222   1.397       .  A
C1221     Br1228   1.922       .  S
C1222      C1223   1.401       .  A
C1222      H1227   1.083       .  S
C1223      C1224   1.409   1_554  A
C1224     Br1225   1.915       .  S
C1229      C1230   1.409       .  A
C1229      C1234   1.380       .  A
C1229      H1236   1.081       .  S
C1230      C1231   1.411       .  A
C1231      C1232   1.405       .  A
C1231     Br1238   1.917       .  S
C1232      C1233   1.408       .  A
C1232      H1237   1.083       .  S
C1233      C1234   1.405       .  A
C1234     Br1235   1.925       .  S
C1239      C1240   1.407       .  A
C1239      C1244   1.402       .  A
C1239      H1246   1.083       .  S
C1240      C1241   1.419       .  A
C1241      C1242   1.382       .  A
C1241     Br1248   1.925       .  S
C1242      C1243   1.391       .  A
C1242      H1247   1.084       .  S
C1243      C1244   1.405       .  A
C1244     Br1245   1.917       .  S
O1249      C1257   1.266       .  A
O1250      C1251   1.261       .  A
C1251      O1252   1.258   1_554  A
C1251      C1616   1.469       .  S
O1252     Cr1268   1.990       .  S
O1253      C1254   1.258       .  A
O1253     Cr1268   1.992       .  S
C1254      O1255   1.254       .  A
C1254      C1649   1.471       .  S
O1255     Cr1269   1.954       .  S
O1256      C1257   1.281       .  A
O1256     Cr1269   2.044       .  S
C1257      C1606   1.504       .  S
O1258     Cr1267   1.999       .  S
O1259      C1260   1.267       .  A
O1259     Cr1267   1.992       .  S
C1260      O1261   1.262       .  A
C1260      C1656   1.470       .  S
O1262      C1263   1.256   1_554  A
O1262     Cr1268   1.953   1_554  S
C1263      O1264   1.271       .  A
C1263      C1629   1.486   1_556  S
O1264     Cr1269   2.031       .  S
O1265      C1266   1.255       .  A
O1265     Cr1269   1.986       .  S
Cr1268     O1270   1.776       .  S
Cr1269     O1270   1.774       .  S
O1271      C1279   1.272       .  A
O1271     Cr1289   1.968       .  S
O1272      C1273   1.252       .  A
O1272     Cr1289   1.987       .  S
C1273      O1274   1.249       .  A
C1273      C1559   1.458       .  S
O1274     Cr1290   1.979       .  S
O1275      C1276   1.260       .  A
O1275     Cr1290   2.001       .  S
C1276      O1277   1.260       .  A
C1276      C1586   1.489       .  S
O1277     Cr1291   1.966       .  S
O1278      C1279   1.290       .  A
O1278     Cr1291   2.073       .  S
C1279      C1576   1.516       .  S
O1280      C1288   1.249       .  A
O1280     Cr1289   1.987       .  S
O1281      C1282   1.269       .  A
C1282      O1283   1.278       .  A
C1282      C1596   1.466       .  S
O1284      C1285   1.250       .  A
O1284     Cr1290   1.933       .  S
C1285      O1286   1.272       .  A
C1285      C1566   1.485       .  S
O1286     Cr1291   2.025       .  S
O1287      C1288   1.250       .  A
O1287     Cr1291   2.002       .  S
C1288      C1639   1.480       .  S
Cr1289     O1292   1.774       .  S
Cr1290     O1292   1.777       .  S
Cr1291     O1292   1.766       .  S
O1293      C1301   1.265       .  A
O1294      C1295   1.263       .  A
C1295      O1296   1.261       .  A
C1295      C1569   1.460       .  S
O1296     Cr1312   1.985       .  S
O1297      C1298   1.264       .  A
O1297     Cr1312   2.023       .  S
C1298      O1299   1.258       .  A
C1298      C1539   1.493       .  S
O1299     Cr1313   1.969       .  S
O1300      C1301   1.272       .  A
O1300     Cr1313   2.025       .  S
C1301      C1549   1.492       .  S
O1302     Cr1311   1.993       .  S
O1303      C1304   1.263       .  A
O1303     Cr1311   1.992       .  S
C1304      O1305   1.266       .  A
C1304      C1529   1.467       .  S
O1306      C1307   1.256       .  A
O1306     Cr1312   1.946       .  S
C1307      O1308   1.268       .  A
C1307      C1556   1.466       .  S
O1308     Cr1313   2.011       .  S
O1309      C1310   1.257       .  A
O1309     Cr1313   1.993       .  S
Cr1312     O1314   1.773       .  S
Cr1313     O1314   1.770       .  S
O1315      C1323   1.274       .  A
O1315     Cr1333   2.029       .  S
O1316      C1317   1.254       .  A
O1316     Cr1333   1.963       .  S
C1317      O1318   1.265       .  A
C1317      C1626   1.478       .  S
O1318     Cr1334   2.029       .  S
O1319      C1320   1.264       .  A
O1319     Cr1334   1.983       .  S
C1320      O1321   1.266       .  A
C1320      C1506   1.472       .  S
O1321     Cr1335   2.015       .  S
O1322      C1323   1.262       .  A
O1322     Cr1335   1.982       .  S
C1323      C1486   1.507       .  S
O1324      C1332   1.254       .  A
O1324     Cr1333   1.966       .  S
O1325      C1326   1.269       .  A
C1326      O1327   1.255       .  A
C1326      C1496   1.458       .  S
O1328      C1329   1.267       .  A
O1328     Cr1334   2.006       .  S
C1329      O1330   1.262       .  A
C1329      C1619   1.467       .  S
O1330     Cr1335   1.989       .  S
O1331      C1332   1.265       .  A
O1331     Cr1335   2.014       .  S
C1332      C1519   1.476       .  S
Cr1333     O1336   1.769       .  S
Cr1334     O1336   1.769       .  S
Cr1335     O1336   1.770       .  S
O1337      C1345   1.278       .  A
O1337     Cr1355   2.040       .  S
O1338      C1339   1.256       .  A
O1338     Cr1355   1.968       .  S
C1339      O1340   1.259       .  A
C1339      C1466   1.479       .  S
O1340     Cr1356   1.996       .  S
O1341      C1342   1.258       .  A
O1341     Cr1356   1.985       .  S
C1342      O1343   1.257       .  A
C1342      C1526   1.484       .  S
O1343     Cr1357   1.989       .  S
O1344      C1345   1.266       .  A
O1344     Cr1357   1.985       .  S
C1345      C1579   1.513       .  S
O1346      C1354   1.258       .  A
O1346     Cr1355   1.995       .  S
O1347      C1348   1.272       .  A
O1347     Cr1355   2.036       .  S
C1348      O1349   1.256       .  A
C1348      C1536   1.480       .  S
O1349     Cr1356   1.944       .  S
O1350      C1351   1.268       .  A
O1350     Cr1356   2.003       .  S
C1351      O1352   1.272       .  A
C1351      C1456   1.479       .  S
O1352     Cr1357   2.008       .  S
O1353      C1354   1.256       .  A
O1353     Cr1357   1.997       .  S
C1354      C1476   1.496       .  S
Cr1355     O1358   1.778       .  S
Cr1356     O1358   1.779       .  S
Cr1357     O1358   1.773       .  S
O1359      C1367   1.274       .  A
O1359     Cr1377   2.032       .  S
O1360      C1361   1.256       .  A
O1360     Cr1377   1.987       .  S
C1361      O1362   1.261       .  A
C1361      C1449   1.483       .  S
O1362     Cr1378   2.012       .  S
O1363      C1364   1.264       .  A
O1363     Cr1378   1.999       .  S
C1364      O1365   1.255       .  A
C1364      C1499   1.469       .  S
O1365     Cr1379   1.978       .  S
O1366      C1367   1.266       .  A
O1366     Cr1379   1.981       .  S
C1367      C1609   1.500       .  S
O1368      C1376   1.261       .  A
O1368     Cr1377   1.994       .  S
O1369      C1370   1.275       .  A
O1369     Cr1377   2.040       .  S
C1370      O1371   1.260       .  A
C1370      C1509   1.490       .  S
O1371     Cr1378   1.946       .  S
O1372      C1373   1.269       .  A
O1372     Cr1378   2.009       .  S
C1373      O1374   1.270       .  A
C1373      C1439   1.478       .  S
O1374     Cr1379   2.006       .  S
O1375      C1376   1.255       .  A
O1375     Cr1379   1.990       .  S
C1376      C1479   1.489       .  S
Cr1377     O1380   1.774       .  S
Cr1378     O1380   1.775       .  S
Cr1379     O1380   1.772       .  S
O1381      C1389   1.279       .  A
O1381     Cr1399   2.035       .  S
O1382      C1383   1.258       .  A
O1382     Cr1399   1.978       .  S
C1383      O1384   1.262       .  A
C1383      C1459   1.479       .  S
O1384     Cr1400   2.012       .  S
O1385      C1386   1.265       .  A
O1385     Cr1400   1.991       .  S
C1386      O1387   1.267       .  A
C1386      C1599   1.479       .  S
O1387     Cr1401   2.004       .  S
O1388      C1389   1.265       .  A
O1388     Cr1401   1.971       .  S
C1389      C1546   1.496       .  S
O1390      C1398   1.260       .  A
O1390     Cr1399   1.992       .  S
O1391      C1392   1.274       .  A
O1391     Cr1399   2.049       .  S
C1392      O1393   1.247       .  A
C1392      C1589   1.480       .  S
O1393     Cr1400   1.936       .  S
O1394      C1395   1.262       .  A
O1394     Cr1400   1.986       .  S
C1395      O1396   1.266       .  A
C1395      C1469   1.475       .  S
O1396     Cr1401   2.011       .  S
O1397      C1398   1.256       .  A
O1397     Cr1401   1.990       .  S
C1398      C1426   1.490       .  S
Cr1399     O1402   1.771       .  S
Cr1400     O1402   1.763       .  S
Cr1401     O1402   1.767       .  S
O1403      C1411   1.276       .  A
O1403     Cr1421   2.029       .  S
O1404      C1405   1.257       .  A
O1404     Cr1421   1.986       .  S
C1405      O1406   1.262       .  A
C1405      C1436   1.480       .  S
O1406     Cr1422   2.017       .  S
O1407      C1408   1.259       .  A
O1407     Cr1422   1.968       .  S
C1408      O1409   1.266       .  A
C1408      C1659   1.451       .  S
O1409     Cr1423   1.993       .  S
O1410      C1411   1.267       .  A
O1410     Cr1423   1.988       .  S
C1411      C1489   1.501       .  S
O1412      C1420   1.259       .  A
O1412     Cr1421   1.990       .  S
O1413      C1414   1.274       .  A
O1413     Cr1421   2.044       .  S
C1414      O1415   1.252       .  A
C1414      C1646   1.483       .  S
O1415     Cr1422   1.929       .  S
O1416      C1417   1.262       .  A
O1416     Cr1422   2.000       .  S
C1417      O1418   1.267       .  A
C1417      C1446   1.479       .  S
O1418     Cr1423   2.016       .  S
O1419      C1420   1.258       .  A
O1419     Cr1423   1.990       .  S
C1420      C1429   1.473       .  S
Cr1421     O1424   1.769       .  S
Cr1422     O1424   1.770       .  S
Cr1423     O1424   1.765       .  S
C1425      C1426   1.406       .  A
C1425      C1430   1.399   1_545  A
C1425      H1432   1.082       .  S
C1426      C1427   1.421       .  A
C1427      C1428   1.401   1_545  A
C1427     Br1434   1.923       .  S
C1428      C1429   1.398       .  A
C1428      H1433   1.083       .  S
C1429      C1430   1.410       .  A
C1430     Br1431   1.921       .  S
C1435      C1436   1.406       .  A
C1435      C1440   1.407       .  A
C1435      H1442   1.083       .  S
C1436      C1437   1.409       .  A
C1437      C1438   1.400       .  A
C1437     Br1444   1.917       .  S
C1438      C1439   1.402       .  A
C1438      H1443   1.083       .  S
C1439      C1440   1.409       .  A
C1440     Br1441   1.913       .  S
C1445      C1446   1.409       .  A
C1445      H1452   1.080       .  S
C1446      C1447   1.406       .  A
C1448      C1449   1.405       .  A
C1448      H1453   1.080       .  S
C1449      C1450   1.407       .  A
C1455      C1456   1.401       .  A
C1455      C1460   1.404       .  A
C1455      H1462   1.083       .  S
C1456      C1457   1.412       .  A
C1457      C1458   1.398       .  A
C1457     Br1464   1.907       .  S
C1458      C1459   1.398       .  A
C1458      H1463   1.084       .  S
C1459      C1460   1.414       .  A
C1460     Br1461   1.914       .  S
C1465      C1466   1.409       .  A
C1465      H1472   1.079       .  S
C1466      C1467   1.407       .  A
C1467     Br1474   1.922       .  S
C1468      C1469   1.405       .  A
C1468      H1473   1.078       .  S
C1469      C1470   1.404       .  A
C1470     Br1471   1.914       .  S
C1475      C1476   1.406       .  A
C1475      C1480   1.404       .  A
C1475      H1482   1.083       .  S
C1476      C1477   1.420       .  A
C1477      C1478   1.400       .  A
C1477     Br1484   1.922       .  S
C1478      C1479   1.400       .  A
C1478      H1483   1.083       .  S
C1479      C1480   1.419       .  A
C1480     Br1481   1.924       .  S
C1485      C1486   1.410       .  A
C1485      C1490   1.408       .  A
C1485      H1492   1.084       .  S
C1486      C1487   1.421       .  A
C1487      C1488   1.405       .  A
C1487     Br1494   1.924       .  S
C1488      C1489   1.405       .  A
C1488      H1493   1.083       .  S
C1489      C1490   1.416       .  A
C1490     Br1491   1.920       .  S
C1495      C1496   1.394       .  A
C1495      C1500   1.384       .  A
C1495      H1502   1.084       .  S
C1496      C1497   1.405       .  A
C1497      C1498   1.404       .  A
C1497     Br1504   1.915       .  S
C1498      C1499   1.406       .  A
C1498      H1503   1.083       .  S
C1499      C1500   1.416       .  A
C1500     Br1501   1.926       .  S
C1505      C1506   1.407       .  A
C1505      C1510   1.408       .  A
C1505      H1512   1.084       .  S
C1506      C1507   1.399       .  A
C1507      C1508   1.391       .  A
C1507     Br1514   1.917       .  S
C1508      C1509   1.409       .  A
C1508      H1513   1.077       .  S
C1509      C1510   1.414       .  A
C1510     Br1511   1.918       .  S
C1515      C1516   1.404       .  A
C1515      C1520   1.393   1_545  A
C1515      H1522   1.084       .  S
C1516      C1517   1.414       .  A
C1517      C1518   1.406   1_545  A
C1517     Br1524   1.919       .  S
C1518      C1519   1.405       .  A
C1518      H1523   1.084       .  S
C1519      C1520   1.409       .  A
C1520     Br1521   1.921       .  S
C1525      C1526   1.409       .  A
C1525      C1530   1.404       .  A
C1525      H1532   1.084       .  S
C1526      C1527   1.419       .  A
C1527      C1528   1.390       .  A
C1527     Br1534   1.926       .  S
C1528      C1529   1.396       .  A
C1528      H1533   1.084       .  S
C1529      C1530   1.406       .  A
C1530     Br1531   1.916       .  S
C1535      C1536   1.405       .  A
C1535      C1540   1.413       .  A
C1535      H1542   1.084       .  S
C1536      C1537   1.408       .  A
C1537      C1538   1.390       .  A
C1537     Br1544   1.919       .  S
C1538      C1539   1.404       .  A
C1538      H1543   1.083       .  S
C1539      C1540   1.419       .  A
C1540     Br1541   1.917       .  S
C1545      C1546   1.408       .  A
C1545      C1550   1.405       .  A
C1545      H1552   1.083       .  S
C1546      C1547   1.417       .  A
C1547      C1548   1.400       .  A
C1547     Br1554   1.923       .  S
C1548      C1549   1.405       .  A
C1548      H1553   1.083       .  S
C1549      C1550   1.415       .  A
C1550     Br1551   1.920       .  S
C1555      C1560   1.393       .  A
C1555      H1562   1.086       .  S
C1556      C1557   1.408       .  A
C1557     Br1564   1.922       .  S
C1558      H1563   1.088   1_455  S
C1560     Br1561   1.920       .  S
C1565      C1566   1.405       .  A
C1565      C1570   1.403       .  A
C1565      H1572   1.083       .  S
C1566      C1567   1.427       .  A
C1568      C1569   1.390       .  A
C1568      H1573   1.086       .  S
C1570     Br1571   1.916       .  S
C1575      C1580   1.403       .  A
C1575      H1582   1.083       .  S
C1576      C1577   1.418       .  A
C1577     Br1584   1.918       .  S
C1578      C1579   1.414       .  A
C1579      C1580   1.420       .  A
C1580     Br1581   1.926       .  S
C1585      C1586   1.399       .  A
C1585      C1590   1.384       .  A
C1585      H1592   1.085       .  S
C1586      C1587   1.420       .  A
C1587      C1588   1.412       .  A
C1587     Br1594   1.917       .  S
C1588      C1589   1.404       .  A
C1588      H1593   1.085       .  S
C1589      C1590   1.416       .  A
C1590     Br1591   1.930       .  S
C1595      C1596   1.395       .  A
C1595      C1600   1.391       .  A
C1595      H1602   1.085       .  S
C1596      C1597   1.409       .  A
C1597      C1598   1.405       .  A
C1597     Br1604   1.916       .  S
C1598      C1599   1.405       .  A
C1598      H1603   1.084       .  S
C1599      C1600   1.415       .  A
C1600     Br1601   1.923       .  S
C1605      C1606   1.412       .  A
C1605      H1612   1.083       .  S
C1607      C1608   1.400       .  A
C1607     Br1614   1.925       .  S
C1608      C1609   1.405       .  A
C1608      H1613   1.081       .  S
C1609      C1610   1.415       .  A
C1615      C1620   1.400       .  A
C1617     Br1624   1.920       .  S
C1618      C1619   1.399       .  A
C1618      H1623   1.084       .  S
C1619      C1620   1.409       .  A
C1620     Br1621   1.914       .  S
C1625      C1630   1.408       .  A
C1625      H1632   1.083       .  S
C1626      C1627   1.404       .  A
C1627      C1628   1.396       .  A
C1627     Br1634   1.919       .  S
C1628      H1633   1.083       .  S
C1629      C1630   1.410   1_554  A
C1630     Br1631   1.918       .  S
C1635      C1636   1.410       .  A
C1635      C1640   1.405       .  A
C1635      H1642   1.083       .  S
C1636      C1637   1.415       .  A
C1637      C1638   1.396       .  A
C1637     Br1644   1.921       .  S
C1638      C1639   1.400       .  A
C1638      H1643   1.083       .  S
C1639      C1640   1.409       .  A
C1640     Br1641   1.915       .  S
C1645      C1646   1.409       .  A
C1645      C1650   1.381       .  A
C1645      H1652   1.082       .  S
C1646      C1647   1.411       .  A
C1647      C1648   1.406       .  A
C1647     Br1654   1.917       .  S
C1648      C1649   1.409       .  A
C1648      H1653   1.083       .  S
C1649      C1650   1.405       .  A
C1650     Br1651   1.923       .  S
C1655      C1656   1.407       .  A
C1655      C1660   1.402       .  A
C1655      H1662   1.083       .  S
C1656      C1657   1.419       .  A
C1657      C1658   1.382       .  A
C1657     Br1664   1.926       .  S
C1658      C1659   1.391       .  A
C1658      H1663   1.084       .  S
C1659      C1660   1.405       .  A
C1660     Br1661   1.917       .  S
