geometry optimzed in LAMMPS
_audit_creation_date              2020-12-01 
_audit_creation_method            'lammps2cif' 
_symmetry_space_group_name_H-M    'P1' 
_symmetry_Int_Tables_number       1 
_symmetry_cell_setting            triclinic 
loop_ 
_symmetry_equiv_pos_as_xyz 
  x,y,z 
_cell_length_a                    37.10526116 
_cell_length_b                    22.832428751371996 
_cell_length_c                    43.72866392833411 
_cell_angle_alpha                 90.569896070106 
_cell_angle_beta                  87.26702205281057 
_cell_angle_gamma                 89.79742965152421 
loop_ 
_atom_site_label 
_atom_site_type_symbol 
_atom_site_fract_x 
_atom_site_fract_y 
_atom_site_fract_z 
_atom_site_charge 
O1          O  0.60248739  0.28964456  0.95718836    -0.79800
O2          O  0.60792048  0.24258235  0.81700254    -0.64400
O3          O  0.63500024  0.26653994  0.89889406    -1.11000
C4          C  0.62974700  0.46602132  0.87471145     1.07100
O5          O  0.64645480  0.30798085  0.79731819    -0.77700
O6          O  0.68987334  0.35424155  0.84053255    -0.65200
Ni7        Ni  0.61339481  0.22180432  0.93158524     1.34900
C8          C  0.70025513  0.35595945  0.86786822     0.85900
O9          O  0.62632750  0.17060662  0.85971485    -0.78200
O10         O  0.62238018  0.14879428  0.90965047    -0.88500
C11         C  0.62692046  0.26235210  0.79468665     0.85400
O12         O  0.56526597  0.22507262  0.91888558    -0.66700
O13         O  0.64221874  0.44875700  0.84835110    -0.86000
C14         C  0.55096078  0.23585895  0.89382599     0.86300
C15         C  0.62644656  0.13427465  0.88142088     1.07800
H16         H  0.59067372  0.34676370  0.85486875     0.39600
O17         O  0.61565257  0.33606511  0.85692949    -1.08600
O18         O  0.67855657  0.36027629  0.89098367    -0.65300
Ni19       Ni  0.62773732  0.34946190  0.89849472     1.26300
O20         O  0.56910744  0.24689137  0.86904435    -0.65500
O21         O  0.62003630  0.43138340  0.89611025    -0.77800
C22         C  0.62106955  0.33523219  0.96188446     0.85700
O23         O  0.63887128  0.36020806  0.94044549    -0.65000
Ni24       Ni  0.64382411  0.37525170  0.82539061     1.27400
Ni25       Ni  0.62038117  0.25307878  0.85819353     1.26100
H26         H  0.66056064  0.25830691  0.89888791     0.40200
O27         O  0.59910027  0.77933539  0.94920249    -0.79800
O28         O  0.59728678  0.75232137  0.80903090    -0.64400
O29         O  0.63039986  0.76274934  0.89028111    -1.11000
C30         C  0.62504708  0.96624634  0.88045480     1.07100
O31         O  0.62247756  0.83489375  0.79119212    -0.77700
O32         O  0.67493918  0.86174680  0.83018013    -0.65200
Ni33       Ni  0.61109106  0.71467639  0.92224506     1.34900
C34         C  0.69109991  0.85740625  0.85500389     0.85900
O35         O  0.61864613  0.67193305  0.84846340    -0.78200
O36         O  0.62105163  0.64609983  0.89790812    -0.88500
C37         C  0.60805653  0.78515610  0.78708446     0.85400
O38         O  0.56214505  0.71490072  0.91175887    -0.66700
O39         O  0.63386351  0.95506698  0.85246929    -0.86000
C40         C  0.54547664  0.73113892  0.88874288     0.86300
C41         C  0.62217033  0.63376148  0.86936380     1.07800
H42         H  0.58069803  0.84967472  0.85625603     0.39600
O43         O  0.60610959  0.84006020  0.85467978    -1.08600
O44         O  0.67460509  0.85695929  0.88140370    -0.65300
Ni45       Ni  0.62426176  0.84497466  0.89508435     1.26300
O46         O  0.56145517  0.74775400  0.86380929    -0.65500
O47         O  0.61637678  0.92681593  0.89946334    -0.77800
C48         C  0.61906210  0.82171926  0.95628711     0.85700
O49         O  0.63985073  0.84576992  0.93634931    -0.65000
Ni50       Ni  0.62767946  0.89035245  0.82424641     1.27400
Ni51       Ni  0.61213257  0.75606789  0.85045837     1.26100
H52         H  0.65589819  0.75396253  0.88837288     0.40200
O53         O  0.60502237  0.19031448  0.54984489    -0.79800
O54         O  0.61333919  0.24289756  0.68824884    -0.64400
O55         O  0.63780810  0.22118898  0.60364688    -1.11000
C56         C  0.63252215  0.01874113  0.62732904     1.07100
O57         O  0.64912806  0.17301657  0.70475900    -0.77700
O58         O  0.69071512  0.11366885  0.66127528    -0.65200
Ni59       Ni  0.61082529  0.26059067  0.57391623     1.34900
C60         C  0.70487381  0.12381285  0.63475655     0.85900
O61         O  0.62957705  0.31544857  0.64338965    -0.78200
O62         O  0.61522399  0.33490769  0.59509422    -0.88500
C63         C  0.63152572  0.22078575  0.70894472     0.85400
O64         O  0.56372284  0.24740614  0.59193905    -0.66700
O65         O  0.63615075  0.03367521  0.65522247    -0.86000
C66         C  0.55206027  0.24176545  0.61948432     0.86300
C67         C  0.62394455  0.35085013  0.62185777     1.07800
H68         H  0.59463071  0.13935327  0.64783654     0.39600
O69         O  0.61990532  0.14943091  0.64618696    -1.08600
O70         O  0.68651019  0.13411972  0.61151459    -0.65300
Ni71       Ni  0.63565702  0.13798441  0.60395758     1.26300
O72         O  0.57282129  0.23929638  0.64170176    -0.65500
O73         O  0.63223828  0.05479097  0.60534510    -0.77800
C74         C  0.62997687  0.15462109  0.54122847     0.85700
O75         O  0.64970082  0.13174010  0.56091094    -0.65000
Ni76       Ni  0.64223208  0.10606616  0.67757529     1.27400
Ni77       Ni  0.62438813  0.23288541  0.64573406     1.26100
H78         H  0.66265721  0.23322858  0.60043755     0.40200
O79         O  0.59218131  0.70704747  0.55506805    -0.79800
O80         O  0.60328501  0.72703927  0.69192934    -0.64400
O81         O  0.63080714  0.72429404  0.60668058    -1.11000
C82         C  0.62645940  0.51869557  0.61834966     1.07100
O83         O  0.64384431  0.65922740  0.70219672    -0.77700
O84         O  0.68549249  0.61140465  0.65537544    -0.65200
Ni85       Ni  0.60679496  0.77248209  0.57904578     1.34900
C86         C  0.69855441  0.62216199  0.62859535     0.85900
O87         O  0.61860521  0.81232789  0.65128805    -0.78200
O88         O  0.61926146  0.84056820  0.60198125    -0.88500
C89         C  0.62195635  0.69985868  0.71091694     0.85400
O90         O  0.55939141  0.77249620  0.59737808    -0.66700
O91         O  0.63335152  0.52979008  0.64614243    -0.86000
C92         C  0.54572144  0.75052020  0.62168386     0.86300
C93         C  0.62115670  0.85150742  0.63056801     1.07800
H94         H  0.58864876  0.63255538  0.64644188     0.39600
O95         O  0.61359280  0.64449257  0.64441297    -1.08600
O96         O  0.67894803  0.63305433  0.60605679    -0.65300
Ni97       Ni  0.62714023  0.64133219  0.60146886     1.26300
O98         O  0.56461290  0.73096731  0.64283848    -0.65500
O99         O  0.62237743  0.55801797  0.59831814    -0.77800
C100        C  0.61355020  0.67041994  0.54197872     0.85700
O101        O  0.63667652  0.64366651  0.55740275    -0.65000
Ni102      Ni  0.63811649  0.59717072  0.67224710     1.27400
Ni103      Ni  0.61586175  0.72789820  0.64890189     1.26100
H104        H  0.65597889  0.73506849  0.60505476     0.40200
O105        O  0.39431251  0.20416874  0.94583399    -0.79800
O106        O  0.39433332  0.22126932  0.80356978    -0.64400
O107        O  0.36431144  0.21879321  0.88823583    -1.11000
C108        C  0.36929318  0.01349877  0.87715151     1.07100
O109        O  0.36144621  0.14523005  0.78928062    -0.77700
O110        O  0.31316951  0.10938856  0.83498120    -0.65200
Ni111      Ni  0.38877421  0.26633761  0.91692933     1.34900
C112        C  0.29953671  0.11688118  0.86202023     0.85900
O113        O  0.37484723  0.30518330  0.84359282    -0.78200
O114        O  0.38526663  0.33416030  0.89157722    -0.88500
C115        C  0.38018417  0.19056884  0.78304495     0.85400
O116        O  0.43675591  0.25063005  0.90168908    -0.66700
O117        O  0.36096804  0.02312408  0.84967207    -0.86000
C118        C  0.45036119  0.23891853  0.87516811     0.86300
C119        C  0.37899121  0.34496722  0.86377187     1.07800
H120        H  0.41048556  0.12782097  0.84876193     0.39600
O121        O  0.38521116  0.13837152  0.85012063    -1.08600
O122        O  0.31859987  0.12500510  0.88514475    -0.65300
Ni123      Ni  0.36917515  0.13616613  0.89251769     1.26300
O124        O  0.43132136  0.22989350  0.85221222    -0.65500
O125        O  0.37613859  0.05394777  0.89602927    -0.77800
C126        C  0.37182207  0.16508885  0.95441756     0.85700
O127        O  0.35379627  0.13776835  0.93506874    -0.65000
Ni128      Ni  0.36153766  0.08825922  0.82185605     1.27400
Ni129      Ni  0.38026682  0.22167025  0.84602935     1.26100
H130        H  0.33906336  0.22947357  0.88983843     0.40200
O131        O  0.38923449  0.68626696  0.94747826    -0.79800
O132        O  0.38372999  0.74452147  0.81112261    -0.64400
O133        O  0.35795841  0.71436863  0.89346401    -1.11000
C134        C  0.37547014  0.51350072  0.86744402     1.07100
O135        O  0.36363706  0.66393620  0.78886449    -0.77700
O136        O  0.31899986  0.60622540  0.82855191    -0.65200
Ni137      Ni  0.38291994  0.75624525  0.92393497     1.34900
C138        C  0.30136198  0.61235706  0.85399557     0.85900
O139        O  0.35867861  0.80939292  0.85625394    -0.78200
O140        O  0.37766833  0.83059836  0.90309187    -0.88500
C141        C  0.37338846  0.71726961  0.78813651     0.85400
O142        O  0.43084715  0.74442687  0.90682258    -0.66700
O143        O  0.37321640  0.52818256  0.83959479    -0.86000
C144        C  0.44274784  0.74652940  0.87919066     0.86300
C145        C  0.36567901  0.84565866  0.87730862     1.07800
H146        H  0.41011779  0.64295748  0.85054517     0.39600
O147        O  0.38421360  0.64731934  0.85049158    -1.08600
O148        O  0.31595016  0.62073729  0.87960121    -0.65300
Ni149      Ni  0.36536251  0.63211109  0.89152495     1.26300
O150        O  0.42194027  0.74792394  0.85709581    -0.65500
O151        O  0.37406583  0.54985026  0.88961425    -0.77800
C152        C  0.36492926  0.64874282  0.95429513     0.85700
O153        O  0.34788200  0.62361458  0.93335972    -0.65000
Ni154      Ni  0.36880331  0.59972790  0.81700813     1.27400
Ni155      Ni  0.37175467  0.72938913  0.85231230     1.26100
H156        H  0.33251662  0.72274954  0.89665616     0.40200
O157        O  0.39044696  0.27134653  0.54764744    -0.79800
O158        O  0.40196580  0.25292987  0.68864195    -0.64400
O159        O  0.36464426  0.25991577  0.60884538    -1.11000
C160        C  0.37823129  0.46463225  0.61874314     1.07100
O161        O  0.37362184  0.33295615  0.70690975    -0.77700
O162        O  0.32479724  0.37551069  0.66947127    -0.65200
Ni163      Ni  0.38266511  0.20933421  0.57667214     1.34900
C164        C  0.30727202  0.36593768  0.64575061     0.85900
O165        O  0.37710208  0.17179502  0.65145672    -0.78200
O166        O  0.37627543  0.14231105  0.60231008    -0.88500
C167        C  0.38924982  0.28421456  0.71079661     0.85400
O168        O  0.43252676  0.21409214  0.58472554    -0.66700
O169        O  0.37465582  0.45558250  0.64743124    -0.86000
C170        C  0.44978034  0.22791041  0.60802400     0.86300
C171        C  0.37475450  0.13208519  0.63094641     1.07800
H172        H  0.41735636  0.34531371  0.64020279     0.39600
O173        O  0.39183752  0.33759828  0.64315001    -1.08600
O174        O  0.32218564  0.35631099  0.61922329    -0.65300
Ni175      Ni  0.37134950  0.34197637  0.60358639     1.26300
O176        O  0.43442868  0.24246193  0.63367787    -0.65500
O177        O  0.37959267  0.42381080  0.59886801    -0.77800
C178        C  0.37045817  0.31471033  0.54191586     0.85700
O179        O  0.35280528  0.34191038  0.56318440    -0.65000
Ni180      Ni  0.37447347  0.39031383  0.67487003     1.27400
Ni181      Ni  0.38469925  0.25477559  0.64817612     1.26100
H182        H  0.33913617  0.25200906  0.61152639     0.40200
O183        O  0.38058287  0.79088961  0.54478597    -0.79800
O184        O  0.39839838  0.74423043  0.68145146    -0.64400
O185        O  0.35877479  0.76110108  0.60419723    -1.11000
C186        C  0.36602726  0.96456039  0.62801525     1.07100
O187        O  0.36188640  0.80956983  0.70427039    -0.77700
O188        O  0.31568541  0.87204034  0.67215470    -0.65200
Ni189      Ni  0.38079760  0.72126877  0.56949616     1.34900
C190        C  0.29744259  0.85940660  0.64925692     0.85900
O191        O  0.37519885  0.66917112  0.64143728    -0.78200
O192        O  0.38193667  0.64746704  0.59121254    -0.88500
C193        C  0.38094229  0.76311207  0.70483827     0.85400
O194        O  0.42997413  0.73739820  0.57738424    -0.66700
O195        O  0.36894021  0.94994643  0.65591318    -0.86000
C196        C  0.44585142  0.74392911  0.60219020     0.86300
C197        C  0.37818651  0.63274557  0.61935560     1.07800
H198        H  0.40782774  0.84603242  0.63876537     0.39600
O199        O  0.38289238  0.83495155  0.64238557    -1.08600
O200        O  0.31143525  0.84662115  0.62283916    -0.65300
Ni201      Ni  0.35975538  0.84457092  0.60464801     1.26300
O202        O  0.42918325  0.74655770  0.62813217    -0.65500
O203        O  0.36181513  0.92820378  0.60615885    -0.77800
C204        C  0.35421171  0.82604878  0.54218629     0.85700
O205        O  0.33816080  0.84887113  0.56568915    -0.65000
Ni206      Ni  0.36600266  0.87759745  0.67816036     1.27400
Ni207      Ni  0.37953471  0.75166182  0.64254778     1.26100
H208        H  0.33403492  0.74803478  0.60614220     0.40200
O209        O  0.90618161  0.04048177  0.56262254    -0.79800
O210        O  0.88624580  0.00246840  0.70122343    -0.64400
O211        O  0.86728094  0.02014268  0.61716440    -1.11000
C212        C  0.87337655  0.22246938  0.63327436     1.07100
O213        O  0.87023207  0.09034674  0.72014052    -0.77700
O214        O  0.81996280  0.11621405  0.67845094    -0.65200
Ni215      Ni  0.89293622  0.97375333  0.58688761     1.34900
C216        C  0.80546871  0.11416968  0.65268113     0.85900
O217        O  0.86784052  0.92844670  0.65798090    -0.78200
O218        O  0.88181233  0.90309575  0.60890229    -0.88500
C219        C  0.87936224  0.03728685  0.72349742     0.85400
O220        O  0.93944087  0.97863892  0.60289409    -0.66700
O221        O  0.86104567  0.20989252  0.65998163    -0.86000
C222        C  0.95040631  0.98697641  0.62953720     0.86300
C223        C  0.87180044  0.89054565  0.63640705     1.07800
H224        H  0.91441199  0.10005224  0.65733972     0.39600
O225        O  0.88868870  0.09382719  0.65695922    -1.08600
O226        O  0.82354660  0.11547704  0.62686734    -0.65300
Ni227      Ni  0.87471923  0.10218698  0.61523994     1.26300
O228        O  0.92920523  0.99550284  0.65278022    -0.65500
O229        O  0.88395065  0.18395622  0.61384422    -0.77800
C230        C  0.88440107  0.07832286  0.55326779     0.85700
O231        O  0.86304482  0.10513682  0.57238048    -0.65000
Ni232      Ni  0.86621784  0.14507310  0.68726584     1.27400
Ni233      Ni  0.87809024  0.01071342  0.65881154     1.26100
H234        H  0.84194439  0.01202999  0.61530017     0.40200
O235        O  0.90838400  0.54078189  0.56450539    -0.79800
O236        O  0.88775301  0.50672672  0.70013058    -0.64400
O237        O  0.86640195  0.51875213  0.61645940    -1.11000
C238        C  0.86833171  0.72255974  0.63215431     1.07100
O239        O  0.85750071  0.58503351  0.71809989    -0.77700
O240        O  0.81213550  0.61718157  0.67357260    -0.65200
Ni241      Ni  0.89322531  0.47282736  0.58680148     1.34900
C242        C  0.79942061  0.61237468  0.64717175     0.85900
O243        O  0.87193410  0.42819647  0.65775480    -0.78200
O244        O  0.87992025  0.40241450  0.60791184    -0.88500
C245        C  0.87403636  0.53694650  0.72215039     0.85400
O246        O  0.93942908  0.47236464  0.60398646    -0.66700
O247        O  0.85700653  0.71001526  0.65926107    -0.86000
C248        C  0.95044046  0.48735582  0.62987909     0.86300
C249        C  0.87337371  0.39016059  0.63607852     1.07800
H250        H  0.90865993  0.60546401  0.65708157     0.39600
O251        O  0.88345694  0.59557865  0.65597366    -1.08600
O252        O  0.81910627  0.61126938  0.62223632    -0.65300
Ni253      Ni  0.87122656  0.60153788  0.61363482     1.26300
O254        O  0.92928129  0.50387588  0.65185520    -0.65500
O255        O  0.87752324  0.68416526  0.61206572    -0.77800
C256        C  0.88618919  0.57503089  0.55273403     0.85700
O257        O  0.86269261  0.60163866  0.57004196    -0.65000
Ni258      Ni  0.85782407  0.64323164  0.68594544     1.27400
Ni259      Ni  0.87779115  0.51180107  0.65805127     1.26100
H260        H  0.84131297  0.50850857  0.61484147     0.40200
O261        O  0.88263546  0.43443399  0.95275159    -0.79800
O262        O  0.89623310  0.46760067  0.81354438    -0.64400
O263        O  0.85650137  0.45212306  0.89494564    -1.11000
C264        C  0.87353043  0.24859656  0.88066916     1.07100
O265        O  0.87446965  0.38492195  0.79438320    -0.77700
O266        O  0.82357728  0.33895052  0.83240148    -0.65200
Ni267      Ni  0.87263688  0.50003176  0.92731965     1.34900
C268        C  0.80362230  0.34790065  0.85633424     0.85900
O269        O  0.86862608  0.54356920  0.85425884    -0.78200
O270        O  0.86447473  0.56925867  0.90421698    -0.88500
C271        C  0.88649743  0.43663811  0.79118180     0.85400
O272        O  0.92249194  0.50080511  0.91596657    -0.66700
O273        O  0.87245248  0.25914648  0.85218751    -0.86000
C274        C  0.94081454  0.48871358  0.89161732     0.86300
C275        C  0.86440772  0.58147353  0.87579562     1.07800
H276        H  0.91230679  0.37143570  0.86016322     0.39600
O277        O  0.88681429  0.37786365  0.85798069    -1.08600
O278        O  0.81569320  0.35643463  0.88305589    -0.65300
Ni279      Ni  0.86370400  0.37011815  0.89829656     1.26300
O280        O  0.92680777  0.47411875  0.86668270    -0.65500
O281        O  0.87240280  0.28819291  0.90120513    -0.77800
C282        C  0.86003890  0.39524649  0.96058595     0.85700
O283        O  0.84307374  0.36828762  0.94004649    -0.65000
Ni284      Ni  0.87370140  0.32594913  0.82573622     1.27400
Ni285      Ni  0.87784688  0.46087858  0.85488672     1.26100
H286        H  0.83098117  0.45979589  0.89381161     0.40200
O287        O  0.89654884  0.92508570  0.95098904    -0.79800
O288        O  0.88983232  0.96251195  0.81380630    -0.64400
O289        O  0.86297932  0.95391286  0.89844770    -1.11000
C290        C  0.86005531  0.74901131  0.87968659     1.07100
O291        O  0.84966901  0.89644217  0.80020138    -0.77700
O292        O  0.80588901  0.84710414  0.84402694    -0.65200
Ni293      Ni  0.88919046  0.99515072  0.92802485     1.34900
C294        C  0.79250881  0.86053058  0.87049311     0.85900
O295        O  0.87579016  0.04313591  0.85722389    -0.78200
O296        O  0.88282721  0.06776093  0.90672674    -0.88500
C297        C  0.87095266  0.93856244  0.79380501     0.85400
O298        O  0.93692178  0.98610725  0.91033699    -0.66700
O299        O  0.85656962  0.76181205  0.85168505    -0.86000
C300        C  0.94939099  0.97264215  0.88367892     0.86300
C301        C  0.87791993  0.08077001  0.87881380     1.07800
H302        H  0.90338100  0.86240962  0.85647809     0.39600
O303        O  0.87859762  0.87564257  0.85803716    -1.08600
O304        O  0.81158944  0.87063370  0.89336777    -0.65300
Ni305      Ni  0.86261902  0.87057569  0.90028880     1.26300
O306        O  0.92925695  0.96111598  0.86168776    -0.65500
O307        O  0.86301641  0.78693490  0.90093104    -0.77800
C308        C  0.87070104  0.89354200  0.96144336     0.85700
O309        O  0.84910410  0.87073282  0.94320381    -0.65000
Ni310      Ni  0.85383094  0.83191130  0.82804307     1.27400
Ni311      Ni  0.87769396  0.95952764  0.85654936     1.26100
H312        H  0.83841509  0.96814596  0.90067250     0.40200
O313        O  0.11514145  0.02536370  0.95412471    -0.79800
O314        O  0.09821365  0.97877681  0.81619755    -0.64400
O315        O  0.13843136  0.99837932  0.89380047    -1.11000
C316        C  0.12543478  0.20101246  0.87359491     1.07100
O317        O  0.13134910  0.04824509  0.79372002    -0.77700
O318        O  0.17865819  0.10777148  0.82727088    -0.65200
Ni319      Ni  0.11895794  0.95630596  0.92831606     1.34900
C320        C  0.19724150  0.09983858  0.85050888     0.85900
O321        O  0.12307809  0.90452215  0.85570516    -0.78200
O322        O  0.12141776  0.88292867  0.90581364    -0.88500
C323        C  0.11353293  0.00070754  0.79261517     0.85400
O324        O  0.06901026  0.96517836  0.92110241    -0.66700
O325        O  0.12540978  0.18652608  0.84531028    -0.86000
C326        C  0.05180715  0.97272268  0.89712246     0.86300
C327        C  0.12329683  0.86814078  0.87750822     1.07800
H328        H  0.08674182  0.08044363  0.86018499     0.39600
O329        O  0.11197187  0.07065769  0.85665340    -1.08600
O330        O  0.18335036  0.08956224  0.87723145    -0.65300
Ni331      Ni  0.13446939  0.08169731  0.89488783     1.26300
O332        O  0.06732277  0.98000942  0.87086029    -0.65500
O333        O  0.12857342  0.16467012  0.89517033    -0.77800
C334        C  0.13867862  0.06501794  0.95757346     0.85700
O335        O  0.15497928  0.08787882  0.93446401    -0.65000
Ni336      Ni  0.12816363  0.11478793  0.82167014     1.27400
Ni337      Ni  0.11702554  0.98731004  0.85549320     1.26100
H338        H  0.16360598  0.98760390  0.89119168     0.40200
O339        O  0.08496650  0.51803541  0.94729713    -0.79800
O340        O  0.11218422  0.48968886  0.80806367    -0.64400
O341        O  0.12676876  0.49441289  0.89402448    -1.11000
C342        C  0.12620151  0.70004647  0.87938351     1.07100
O343        O  0.15552192  0.55425893  0.79856470    -0.77700
O344        O  0.18874524  0.60984493  0.84427388    -0.65200
Ni345      Ni  0.09665928  0.45086114  0.92180278     1.34900
C346        C  0.19895311  0.59579854  0.87053807     0.85900
O347        O  0.12095159  0.40643712  0.84981139    -0.78200
O348        O  0.10641421  0.38027158  0.89844587    -0.88500
C349        C  0.13545134  0.51278964  0.78980111     0.85400
O350        O  0.05193378  0.46239098  0.90319327    -0.66700
O351        O  0.13335155  0.68833729  0.85106521    -0.86000
C352        C  0.04326016  0.47662354  0.87657642     0.86300
C353        C  0.11566173  0.36809685  0.87055223     1.07800
H354        H  0.09096302  0.58573957  0.85318324     0.39600
O355        O  0.11569240  0.57345109  0.85507777    -1.08600
O356        O  0.17715607  0.58137641  0.89255994    -0.65300
Ni357      Ni  0.12503224  0.57769751  0.89785582     1.26300
O358        O  0.06625358  0.48704825  0.85496039    -0.65500
O359        O  0.12240016  0.66130007  0.90003796    -0.77800
C360        C  0.10784217  0.55199135  0.95869814     0.85700
O361        O  0.13157268  0.57683889  0.94143080    -0.65000
Ni362      Ni  0.14337003  0.61911350  0.82648543     1.27400
Ni363      Ni  0.11819571  0.49015429  0.85134556     1.26100
H364        H  0.15120121  0.48127177  0.89662467     0.40200
O365        O  0.10868007  0.44722149  0.54925546    -0.79800
O366        O  0.10142378  0.47381939  0.68784947    -0.64400
O367        O  0.13887192  0.46799816  0.60520981    -1.11000
C368        C  0.13757413  0.26427611  0.62064436     1.07100
O369        O  0.14464623  0.41414676  0.70243222    -0.77700
O370        O  0.19188840  0.36573047  0.65913511    -0.65200
Ni371      Ni  0.11852458  0.51382879  0.57444729     1.34900
C372        C  0.20559728  0.37230594  0.63218758     0.85900
O373        O  0.11969046  0.55783769  0.64727921    -0.78200
O374        O  0.12620756  0.58370127  0.59771871    -0.88500
C375        C  0.12024033  0.45272979  0.70861468     0.85400
O376        O  0.06942788  0.51124488  0.58837496    -0.66700
O377        O  0.14344293  0.27741905  0.64854225    -0.86000
C378        C  0.05285359  0.49130240  0.61192957     0.86300
C379        C  0.12387241  0.59611034  0.62627709     1.07800
H380        H  0.09443819  0.37615257  0.64450266     0.39600
O381        O  0.11903358  0.39001176  0.64341644    -1.08600
O382        O  0.18679141  0.37813644  0.60890523    -0.65300
Ni383      Ni  0.13621895  0.38480301  0.60155687     1.26300
O384        O  0.06873271  0.47356357  0.63533523    -0.65500
O385        O  0.13266626  0.30191969  0.59999550    -0.77800
C386        C  0.13116888  0.40824425  0.54002585     0.85700
O387        O  0.15102653  0.38341078  0.55880627    -0.65000
Ni388      Ni  0.14372092  0.34809387  0.67362741     1.27400
Ni389      Ni  0.11888610  0.47341344  0.64606953     1.26100
H390        H  0.16391735  0.47928452  0.60569801     0.40200
O391        O  0.10583522  0.94562800  0.54844575    -0.79800
O392        O  0.09987936  0.98538402  0.68522681    -0.64400
O393        O  0.13638740  0.96610949  0.60362665    -1.11000
C394        C  0.12590596  0.76424105  0.62319184     1.07100
O395        O  0.13397609  0.91532195  0.70398211    -0.77700
O396        O  0.18177035  0.86476548  0.66183742    -0.65200
Ni397      Ni  0.11825580  0.01301013  0.57207433     1.34900
C398        C  0.19644794  0.86707479  0.63497192     0.85900
O399        O  0.12359512  0.06027245  0.64375714    -0.78200
O400        O  0.12917709  0.08373527  0.59392184    -0.88500
C401        C  0.11559797  0.96257192  0.70714228     0.85400
O402        O  0.06896673  0.01713076  0.58589154    -0.66700
O403        O  0.13214405  0.77873980  0.65073920    -0.86000
C404        C  0.05195266  0.00127964  0.61014749     0.86300
C405        C  0.12892027  0.09710562  0.62236899     1.07800
H406        H  0.08612625  0.88437281  0.64443334     0.39600
O407        O  0.11149819  0.89392392  0.64348893    -1.08600
O408        O  0.17872294  0.87096024  0.61093377    -0.65300
Ni409      Ni  0.12915274  0.88340619  0.60188093     1.26300
O410        O  0.06744711  0.98424012  0.63377208    -0.65500
O411        O  0.12147292  0.80098396  0.60197274    -0.77800
C412        C  0.12783905  0.90555535  0.53970524     0.85700
O413        O  0.14511785  0.87771112  0.55930562    -0.65000
Ni414      Ni  0.13278871  0.84996331  0.67505563     1.27400
Ni415      Ni  0.11719270  0.97714046  0.64416456     1.26100
H416        H  0.16195476  0.97391479  0.60375682     0.40200
O417        O  0.37225353  0.17500405  0.20456329    -0.79800
O418        O  0.37004147  0.15354374  0.05731944    -0.64400
O419        O  0.39640852  0.16159176  0.14175499    -1.11000
C420        C  0.39160049  0.36591789  0.12296918     1.07100
O421        O  0.41681217  0.21087795  0.04814916    -0.77700
O422        O  0.45409108  0.26640133  0.08824500    -0.65200
Ni423      Ni  0.37352075  0.11469045  0.17307254     1.34900
C424        C  0.46427501  0.25599448  0.11483328     0.85900
O425        O  0.38548353  0.07164841  0.09813149    -0.78200
O426        O  0.37304330  0.04665539  0.14685265    -0.88500
C427        C  0.39298857  0.17670410  0.03855270     0.85400
O428        O  0.32647975  0.13664723  0.16260604    -0.66700
O429        O  0.40110134  0.35222117  0.09532582    -0.86000
C430        C  0.31219186  0.14457802  0.13716951     0.86300
C431        C  0.37945235  0.03378731  0.11873230     1.07800
H432        H  0.35445794  0.25022078  0.10077579     0.39600
O433        O  0.37920313  0.23777974  0.10246043    -1.08600
O434        O  0.44253823  0.25156478  0.13783261    -0.65300
Ni435      Ni  0.39106097  0.24552386  0.14392919     1.26300
O436        O  0.33009232  0.14885574  0.11144949    -0.65500
O437        O  0.38568917  0.32861049  0.14401551    -0.77800
C438        C  0.38669123  0.22500297  0.20766740     0.85700
O439        O  0.40101215  0.25274833  0.18559395    -0.65000
Ni440      Ni  0.40783762  0.27970584  0.07270595     1.27400
Ni441      Ni  0.38163426  0.15466244  0.10007996     1.26100
H442        H  0.42171170  0.15140795  0.14149601     0.40200
O443        O  0.37838281  0.68057067  0.20275908    -0.79800
O444        O  0.36141154  0.64466795  0.05888040    -0.64400
O445        O  0.39729594  0.66338380  0.13932865    -1.11000
C446        C  0.38002799  0.86620099  0.12082299     1.07100
O447        O  0.39560431  0.71720717  0.04099002    -0.77700
O448        O  0.43757514  0.77757661  0.07651189    -0.65200
Ni449      Ni  0.37893313  0.61722240  0.17279000     1.34900
C450        C  0.45477992  0.76592591  0.10003614     0.85900
O451        O  0.38818789  0.57075795  0.09839872    -0.78200
O452        O  0.37907735  0.54700862  0.14777686    -0.88500
C453        C  0.37887546  0.66962742  0.03706777     0.85400
O454        O  0.32972438  0.63274412  0.16562250    -0.66700
O455        O  0.38157470  0.85285750  0.09245440    -0.86000
C456        C  0.31283296  0.63432700  0.14108192     0.86300
C457        C  0.38542094  0.53342506  0.11964667     1.07800
H458        H  0.34412653  0.74226695  0.10446335     0.39600
O459        O  0.36976984  0.73493173  0.10204993    -1.08600
O460        O  0.43940251  0.75557059  0.12604221    -0.65300
Ni461      Ni  0.38986945  0.74622287  0.14114118     1.26300
O462        O  0.32848564  0.63759584  0.11446733    -0.65500
O463        O  0.38193979  0.82888917  0.14203786    -0.77800
C464        C  0.39504420  0.72913627  0.20435668     0.85700
O465        O  0.40800288  0.75473611  0.18082321    -0.65000
Ni466      Ni  0.38764442  0.78217456  0.06866690     1.27400
Ni467      Ni  0.37806921  0.65231345  0.09970799     1.26100
H468        H  0.42283980  0.65506719  0.13728704     0.40200
O469        O  0.36553123  0.30437159  0.29579829    -0.79800
O470        O  0.33359854  0.34103187  0.43808623    -0.64400
O471        O  0.38069276  0.32465048  0.35821315    -1.11000
C472        C  0.36894692  0.12167589  0.37589516     1.07100
O473        O  0.36788713  0.27097074  0.45642078    -0.77700
O474        O  0.41798897  0.21982471  0.42099736    -0.65200
Ni475      Ni  0.36727140  0.36994037  0.32407420     1.34900
C476        C  0.43702006  0.22922886  0.39681095     0.85900
O477        O  0.36270130  0.41758514  0.39811121    -0.78200
O478        O  0.36844780  0.44066496  0.34818636    -0.88500
C479        C  0.34783570  0.31582930  0.46038550     0.85400
O480        O  0.31660013  0.36353152  0.33132257    -0.66700
O481        O  0.36950464  0.13496120  0.40423924    -0.86000
C482        C  0.29625124  0.35624218  0.35507279     0.86300
C483        C  0.36677514  0.45440156  0.37657754     1.07800
H484        H  0.32585420  0.24187271  0.39324715     0.39600
O485        O  0.35096507  0.25151965  0.39532169    -1.08600
O486        O  0.42374536  0.23403792  0.37063916    -0.65300
Ni487      Ni  0.37541349  0.24178971  0.35614449     1.26300
O488        O  0.30803126  0.34559409  0.38151453    -0.65500
O489        O  0.36915733  0.15930791  0.35480708    -0.77800
C490        C  0.38383421  0.25714354  0.29358177     0.85700
O491        O  0.39774558  0.23464942  0.31646054    -0.65000
Ni492      Ni  0.36788543  0.20603565  0.42837714     1.27400
Ni493      Ni  0.35590695  0.33488576  0.39735772     1.26100
H494        H  0.40573355  0.33384809  0.36095399     0.40200
O495        O  0.37670507  0.80863550  0.29317989    -0.79800
O496        O  0.34743268  0.83940208  0.43752104    -0.64400
O497        O  0.39006209  0.82549701  0.35612518    -1.11000
C498        C  0.37443754  0.62133807  0.37380984     1.07100
O499        O  0.38279863  0.76886774  0.45362790    -0.77700
O500        O  0.42706427  0.70633402  0.41719218    -0.65200
Ni501      Ni  0.37298943  0.87132915  0.32342890     1.34900
C502        C  0.44640033  0.72093666  0.39389886     0.85900
O503        O  0.37464705  0.91631092  0.39800305    -0.78200
O504        O  0.36848729  0.94077678  0.34901173    -0.88500
C505        C  0.36476405  0.81557338  0.45842839     0.85400
O506        O  0.32374717  0.85192601  0.33136204    -0.66700
O507        O  0.37167424  0.63418362  0.40223568    -0.86000
C508        C  0.30483400  0.84923934  0.35623180     0.86300
C509        C  0.37162016  0.95399902  0.37719367     1.07800
H510        H  0.33606155  0.74302832  0.39110245     0.39600
O511        O  0.36129934  0.75147073  0.39335260    -1.08600
O512        O  0.43341693  0.73508799  0.36855113    -0.65300
Ni513      Ni  0.38516752  0.74216787  0.35397295     1.26300
O514        O  0.31835639  0.84663220  0.38257176    -0.65500
O515        O  0.37966204  0.65893755  0.35282490    -0.77800
C516        C  0.39416511  0.76051052  0.29085109     0.85700
O517        O  0.40677363  0.73568612  0.31379783    -0.65000
Ni518      Ni  0.37643723  0.70401717  0.42623225     1.27400
Ni519      Ni  0.36722134  0.83427768  0.39620170     1.26100
H520        H  0.41521779  0.83532673  0.35768367     0.40200
O521        O  0.63469065  0.29323360  0.20285713    -0.79800
O522        O  0.66336564  0.36415622  0.06369199    -0.64400
O523        O  0.62049056  0.32601584  0.14284932    -1.11000
C524        C  0.64045946  0.12751828  0.10490643     1.07100
O525        O  0.62277648  0.30302759  0.04719144    -0.77700
O526        O  0.58417357  0.22128345  0.07384978    -0.65200
Ni527      Ni  0.63204005  0.36485368  0.17973115     1.34900
C528        C  0.56547110  0.23061283  0.09832216     0.85900
O529        O  0.63571798  0.43276568  0.11027430    -0.78200
O530        O  0.63003049  0.44178996  0.16138061    -0.88500
C531        C  0.64542254  0.34349300  0.04192128     0.85400
O532        O  0.68252867  0.36098776  0.17207565    -0.66700
O533        O  0.64361439  0.15079375  0.07845495    -0.86000
C534        C  0.70290625  0.36009857  0.14799623     0.86300
C535        C  0.63177448  0.46413903  0.13468836     1.07800
H536        H  0.67558287  0.25601633  0.10061760     0.39600
O537        O  0.65014963  0.26477599  0.09980948    -1.08600
O538        O  0.57915378  0.23892780  0.12403510    -0.65300
Ni539      Ni  0.62768464  0.24192962  0.13755157     1.26300
O540        O  0.69146393  0.35615338  0.12078586    -0.65500
O541        O  0.63432203  0.15773898  0.12962765    -0.77800
C542        C  0.61945103  0.24330973  0.20162943     0.85700
O543        O  0.60784268  0.22235982  0.17704816    -0.65000
Ni544      Ni  0.63426814  0.22841984  0.06356633     1.27400
Ni545      Ni  0.64350770  0.34855556  0.10456883     1.26100
H546        H  0.59517095  0.33452776  0.14103689     0.40200
O547        O  0.65758445  0.79286903  0.19777186    -0.79800
O548        O  0.65515400  0.85990030  0.05951693    -0.64400
O549        O  0.62661614  0.82857196  0.14308414    -1.11000
C550        C  0.62645695  0.62822882  0.10669866     1.07100
O551        O  0.60901834  0.80589049  0.04755929    -0.77700
O552        O  0.56819903  0.73913938  0.08401688    -0.65200
Ni553      Ni  0.64959861  0.86557381  0.17622952     1.34900
C554        C  0.55649841  0.74431894  0.11162650     0.85900
O555        O  0.63987013  0.93245899  0.10816125    -0.78200
O556        O  0.64214907  0.94230155  0.15923630    -0.88500
C557        C  0.63510572  0.83906424  0.03946088     0.85400
O558        O  0.69803096  0.86412246  0.15862356    -0.66700
O559        O  0.62031490  0.65109907  0.08082379    -0.86000
C560        C  0.71149594  0.85841694  0.13137070     0.86300
C561        C  0.64001961  0.96408746  0.13259909     1.07800
H562        H  0.66718775  0.75050229  0.09313184     0.39600
O563        O  0.64249970  0.76317172  0.09695776    -1.08600
O564        O  0.57714182  0.74439408  0.13396846    -0.65300
Ni565      Ni  0.62882024  0.74410395  0.13800978     1.26300
O566        O  0.69261262  0.84793228  0.10844710    -0.65500
O567        O  0.63089491  0.65928673  0.13090538    -0.77800
C568        C  0.63708363  0.74829434  0.20121651     0.85700
O569        O  0.61814761  0.72913765  0.18000151    -0.65000
Ni570      Ni  0.61536234  0.73004002  0.06522609     1.27400
Ni571      Ni  0.64164520  0.84753320  0.10189501     1.26100
H572        H  0.60157829  0.84015519  0.14562205     0.40200
O573        O  0.63213077  0.15528813  0.29010891    -0.79800
O574        O  0.63365590  0.13948636  0.43729192    -0.64400
O575        O  0.60661820  0.14340458  0.35297271    -1.11000
C576        C  0.61365218  0.34899024  0.36952252     1.07100
O577        O  0.58833503  0.20088697  0.44668436    -0.77700
O578        O  0.55077318  0.25842632  0.40675269    -0.65200
Ni579      Ni  0.62882299  0.09502610  0.32141246     1.34900
C580        C  0.53951196  0.24494622  0.38072111     0.85900
O581        O  0.61671741  0.05563305  0.39679403    -0.78200
O582        O  0.62662541  0.02787391  0.34771934    -0.88500
C583        C  0.61124138  0.16479019  0.45615254     0.85400
O584        O  0.67671012  0.11201937  0.33215720    -0.66700
O585        O  0.60644110  0.33793885  0.39777735    -0.86000
C586        C  0.69134458  0.12127075  0.35742556     0.86300
C587        C  0.62051029  0.01654607  0.37600741     1.07800
H588        H  0.65023541  0.23299378  0.39201374     0.39600
O589        O  0.62522682  0.22157332  0.39123327    -1.08600
O590        O  0.56054161  0.23402223  0.35778461    -0.65300
Ni591      Ni  0.61168064  0.22662716  0.35005370     1.26300
O592        O  0.67344674  0.12970213  0.38298304    -0.65500
O593        O  0.61707001  0.30969021  0.34874672    -0.77800
C594        C  0.61551937  0.20358839  0.28680950     0.85700
O595        O  0.59941848  0.23000345  0.30885232    -0.65000
Ni596      Ni  0.59831592  0.26745244  0.42117449     1.27400
Ni597      Ni  0.62188257  0.13855800  0.39446159     1.26100
H598        H  0.58131295  0.13350282  0.35355062     0.40200
O599        O  0.64276807  0.66244382  0.28967053    -0.79800
O600        O  0.64483774  0.63284204  0.43306292    -0.64400
O601        O  0.61333435  0.64782039  0.35100133    -1.11000
C602        C  0.62048256  0.84860653  0.37247630     1.07100
O603        O  0.60244323  0.69551611  0.44932685    -0.77700
O604        O  0.55962601  0.73970582  0.40752319    -0.65200
Ni605      Ni  0.63266526  0.59901346  0.31813764     1.34900
C606        C  0.54905466  0.74009621  0.38037283     0.85900
O607        O  0.62411362  0.55467185  0.39166883    -0.78200
O608        O  0.62381800  0.52933882  0.34194948    -0.88500
C609        C  0.62673192  0.65793357  0.45483345     0.85400
O610        O  0.68152228  0.60193318  0.32948879    -0.66700
O611        O  0.60695155  0.83368436  0.39870947    -0.86000
C612        C  0.69695779  0.61518742  0.35389080     0.86300
C613        C  0.62178847  0.51688726  0.37037171     1.07800
H614        H  0.65879902  0.73140170  0.39364601     0.39600
O615        O  0.63389601  0.72039875  0.39160060    -1.08600
O616        O  0.57076373  0.74429125  0.35721531    -0.65300
Ni617      Ni  0.62194011  0.73054338  0.35028613     1.26300
O618        O  0.68005463  0.63017110  0.37885058    -0.65500
O619        O  0.63092602  0.81208240  0.35180359    -0.77800
C620        C  0.62884624  0.71301535  0.28665595     0.85700
O621        O  0.61216187  0.73938980  0.30852211    -0.65000
Ni622      Ni  0.60536935  0.76185430  0.42220453     1.27400
Ni623      Ni  0.62964556  0.63758225  0.39174434     1.26100
H624        H  0.58763628  0.64092624  0.35197007     0.40200
O625        O  0.85690563  0.07284487  0.30218060    -0.79800
O626        O  0.84668611  0.10510943  0.44838080    -0.64400
O627        O  0.87932434  0.09228463  0.36355067    -1.11000
C628        C  0.87181106  0.88760916  0.38301726     1.07100
O629        O  0.88584451  0.03825548  0.46176206    -0.77700
O630        O  0.92801700  0.98070112  0.42066168    -0.65200
Ni631      Ni  0.85534458  0.13579786  0.33303291     1.34900
C632        C  0.94380163  0.99326281  0.39526196     0.85900
O633        O  0.86828097  0.18306043  0.40617604    -0.78200
O634        O  0.85360211  0.20586197  0.35850779    -0.88500
C635        C  0.86402372  0.07983396  0.46883547     0.85400
O636        O  0.80721519  0.11485582  0.34689733    -0.66700
O637        O  0.87418676  0.90085620  0.41127718    -0.86000
C638        C  0.79300820  0.11201496  0.37399387     0.86300
C639        C  0.86174791  0.22008898  0.38566577     1.07800
H640        H  0.83261762  0.00717044  0.40408372     0.39600
O641        O  0.85789585  0.01730809  0.40357927    -1.08600
O642        O  0.92703003  0.00381908  0.37112918    -0.65300
Ni643      Ni  0.87623925  0.00872627  0.36205996     1.26300
O644        O  0.81163497  0.10943928  0.39766448    -0.65500
O645        O  0.87207069  0.92524473  0.36174009    -0.77800
C646        C  0.87705255  0.02761844  0.29797204     0.85700
O647        O  0.89222808  0.00321995  0.31994771    -0.65000
Ni648      Ni  0.87912797  0.97210586  0.43470095     1.27400
Ni649      Ni  0.86227187  0.10045279  0.40565600     1.26100
H650        H  0.90437783  0.10381860  0.36218929     0.40200
O651        O  0.86001284  0.57948964  0.29974554    -0.79800
O652        O  0.85266718  0.60848725  0.44682417    -0.64400
O653        O  0.87999044  0.58676181  0.36142500    -1.11000
C654        C  0.86145842  0.38824131  0.38273169     1.07100
O655        O  0.88906768  0.53674694  0.45984431    -0.77700
O656        O  0.92856145  0.49055450  0.41209167    -0.65200
Ni657      Ni  0.85936323  0.63790813  0.33208819     1.34900
C658        C  0.93829361  0.48634057  0.38391291     0.85900
O659        O  0.87830312  0.68080118  0.40374005    -0.78200
O660        O  0.85786171  0.70608118  0.35869292    -0.88500
C661        C  0.86884956  0.58051055  0.46706163     0.85400
O662        O  0.81160590  0.61671352  0.34521122    -0.66700
O663        O  0.87765550  0.40190062  0.40693641    -0.86000
C664        C  0.79740440  0.61695846  0.37232241     0.86300
C665        C  0.86964333  0.71912395  0.38472334     1.07800
H666        H  0.83028113  0.51263866  0.40912280     0.39600
O667        O  0.85564392  0.51876936  0.40427744    -1.08600
O668        O  0.91558199  0.48238652  0.36316143    -0.65300
Ni669      Ni  0.86521722  0.50549912  0.36177289     1.26300
O670        O  0.81591093  0.61716651  0.39627180    -0.65500
O671        O  0.85041565  0.42605957  0.36425586    -0.77800
C672        C  0.86676917  0.52502892  0.29689591     0.85700
O673        O  0.87247418  0.49242190  0.31923655    -0.65000
Ni674      Ni  0.88265970  0.47262326  0.43136836     1.27400
Ni675      Ni  0.86613988  0.60000702  0.40401643     1.26100
H676        H  0.90593205  0.58965570  0.35888384     0.40200
O677        O  0.85208904  0.45497292  0.20595191    -0.79800
O678        O  0.86914289  0.38588383  0.06652915    -0.64400
O679        O  0.88874420  0.41772642  0.15052397    -1.11000
C680        C  0.88256100  0.61961344  0.12769860     1.07100
O681        O  0.89078998  0.46929414  0.04640608    -0.77700
O682        O  0.93768769  0.51426318  0.08522481    -0.65200
Ni683      Ni  0.86138380  0.38247000  0.18352372     1.34900
C684        C  0.95267052  0.50739045  0.11043900     0.85900
O685        O  0.88482057  0.31668542  0.11497302    -0.78200
O686        O  0.87013420  0.30706253  0.16553420    -0.88500
C687        C  0.87968099  0.41689156  0.04374146     0.85400
O688        O  0.81469275  0.38647497  0.16624842    -0.66700
O689        O  0.88982142  0.60525573  0.09983219    -0.86000
C690        C  0.80508411  0.38553223  0.13864476     0.86300
C691        C  0.87959070  0.28582375  0.13935801     1.07800
H692        H  0.84338851  0.49215049  0.10811663     0.39600
O693        O  0.86907895  0.48500597  0.10788532    -1.08600
O694        O  0.93529261  0.50609873  0.13644402    -0.65300
Ni695      Ni  0.88406466  0.49994795  0.14865608     1.26300
O696        O  0.82706761  0.38948819  0.11581145    -0.65500
O697        O  0.87712857  0.58213610  0.14829203    -0.77800
C698        C  0.87524462  0.49470698  0.21073091     0.85700
O699        O  0.89731185  0.51049007  0.18959347    -0.65000
Ni700      Ni  0.88970310  0.53281833  0.07575134     1.27400
Ni701      Ni  0.87771725  0.40054218  0.10929932     1.26100
H702        H  0.91375257  0.40762112  0.15295323     0.40200
O703        O  0.87218976  0.94503820  0.20814307    -0.79800
O704        O  0.86717719  0.89774280  0.06380949    -0.64400
O705        O  0.89473407  0.92405906  0.14650931    -1.11000
C706        C  0.88224249  0.12395516  0.11361195     1.07100
O707        O  0.91319954  0.95438984  0.05269565    -0.77700
O708        O  0.94491230  0.03471816  0.08532925    -0.65200
Ni709      Ni  0.87516742  0.87866563  0.17971062     1.34900
C710        C  0.95872525  0.02340672  0.11049535     0.85900
O711        O  0.88758146  0.82642388  0.10682202    -0.78200
O712        O  0.87730682  0.80499551  0.15618294    -0.88500
C713        C  0.89064705  0.91691785  0.04440051     0.85400
O714        O  0.82658538  0.89170915  0.16984044    -0.66700
O715        O  0.88436116  0.10216313  0.08671046    -0.86000
C716        C  0.81133348  0.89339000  0.14448250     0.86300
C717        C  0.88372570  0.78981149  0.12816630     1.07800
H718        H  0.84855770  0.00005808  0.10383666     0.39600
O719        O  0.87394633  0.99079640  0.10452522    -1.08600
O720        O  0.94005774  0.01243429  0.13487480    -0.65300
Ni721      Ni  0.88863068  0.00870501  0.14445356     1.26300
O722        O  0.82854159  0.89744292  0.11840601    -0.65500
O723        O  0.88404862  0.09350783  0.13829410    -0.77800
C724        C  0.88533574  0.99666201  0.20987151     0.85700
O725        O  0.89898656  0.02337532  0.18657380    -0.65000
Ni726      Ni  0.89781844  0.02742240  0.07055939     1.27400
Ni727      Ni  0.87951322  0.90822912  0.10583835     1.26100
H728        H  0.92023873  0.91529519  0.14601226     0.40200
O729        O  0.16112217  0.08527855  0.20390707    -0.79800
O730        O  0.14657991  0.09749756  0.05954842    -0.64400
O731        O  0.12753199  0.09743734  0.14713420    -1.11000
C732        C  0.13248511  0.89051253  0.13137715     1.07100
O733        O  0.10159538  0.03566635  0.05700181    -0.77700
O734        O  0.06892410  0.97813761  0.10163403    -0.65200
Ni735      Ni  0.15334190  0.14592796  0.17416242     1.34900
C736        C  0.05796213  0.99752105  0.12768606     0.85900
O737        O  0.13315019  0.18334244  0.10142667    -0.78200
O738        O  0.14633478  0.21271377  0.14881185    -0.88500
C739        C  0.12352427  0.07079171  0.04399181     0.85400
O740        O  0.19997838  0.13188877  0.15508678    -0.66700
O741        O  0.12618432  0.90136743  0.10354947    -0.86000
C742        C  0.21107749  0.12032820  0.12766065     0.86300
C743        C  0.13756396  0.22306138  0.12154032     1.07800
H744        H  0.16718536  0.00569999  0.10426710     0.39600
O745        O  0.14221300  0.01720292  0.10770753    -1.08600
O746        O  0.07912753  0.01097531  0.14856135    -0.65300
Ni747      Ni  0.13099661  0.01402379  0.15066884     1.26300
O748        O  0.19006942  0.10777851  0.10634663    -0.65500
O749        O  0.13444045  0.92994835  0.15215684    -0.77800
C750        C  0.14103977  0.04282246  0.21255333     0.85700
O751        O  0.12224692  0.01450452  0.19400202    -0.65000
Ni752      Ni  0.11499415  0.97025284  0.08115384     1.27400
Ni753      Ni  0.13834871  0.10010666  0.10370276     1.26100
H754        H  0.10257760  0.10910170  0.15033943     0.40200
O755        O  0.16193839  0.56948471  0.20233274    -0.79800
O756        O  0.14786825  0.60327933  0.06128285    -0.64400
O757        O  0.12601952  0.59483212  0.14796628    -1.11000
C758        C  0.12728033  0.39017030  0.12636231     1.07100
O759        O  0.10214443  0.54441961  0.05503884    -0.77700
O760        O  0.06588658  0.48333255  0.09792982    -0.65200
Ni761      Ni  0.15275850  0.63717176  0.17691398     1.34900
C762        C  0.05445703  0.49872129  0.12463364     0.85900
O763        O  0.13570142  0.68518221  0.10569277    -0.78200
O764        O  0.14521068  0.70883652  0.15489832    -0.88500
C765        C  0.12645689  0.57782624  0.04367534     0.85400
O766        O  0.19932844  0.62771142  0.15720029    -0.66700
O767        O  0.12140888  0.40351373  0.09873353    -0.86000
C768        C  0.21079203  0.61666910  0.12990306     0.86300
C769        C  0.13897799  0.72244029  0.12731524     1.07800
H770        H  0.16437700  0.50518453  0.10326592     0.39600
O771        O  0.13962072  0.51803155  0.10648938    -1.08600
O772        O  0.07541029  0.51062483  0.14595416    -0.65300
Ni773      Ni  0.12720948  0.51135822  0.14911127     1.26300
O774        O  0.18997661  0.60489283  0.10837718    -0.65500
O775        O  0.12914582  0.42748108  0.14816995    -0.77800
C776        C  0.14016980  0.52892986  0.21068811     0.85700
O777        O  0.11758387  0.50850606  0.19251614    -0.65000
Ni778      Ni  0.11243926  0.47546977  0.07795280     1.27400
Ni779      Ni  0.13816120  0.60157001  0.10506045     1.26100
H780        H  0.10132787  0.60792022  0.15116908     0.40200
O781        O  0.14118889  0.42795337  0.29648692    -0.79800
O782        O  0.12789915  0.38878239  0.43877567    -0.64400
O783        O  0.10780470  0.39918452  0.35396366    -1.11000
C784        C  0.11866398  0.60387227  0.37467846     1.07100
O785        O  0.08683421  0.45740548  0.44761211    -0.77700
O786        O  0.05762628  0.53295432  0.41045072    -0.65200
Ni787      Ni  0.13654299  0.35944209  0.32314308     1.34900
C788        C  0.04112198  0.50832021  0.38923350     0.85900
O789        O  0.11330966  0.30881557  0.39491065    -0.78200
O790        O  0.13234901  0.28715873  0.34617709    -0.88500
C791        C  0.10714819  0.41773247  0.45728590     0.85400
O792        O  0.18298646  0.37461723  0.33912360    -0.66700
O793        O  0.12085455  0.59108208  0.40290722    -0.86000
C794        C  0.19288655  0.37593084  0.36660735     0.86300
C795        C  0.12147012  0.27235351  0.37331305     1.07800
H796        H  0.15082760  0.48322877  0.39225746     0.39600
O797        O  0.12534408  0.47457206  0.39339188    -1.08600
O798        O  0.05751263  0.48310349  0.36633528    -0.65300
Ni799      Ni  0.10867334  0.48234308  0.35338942     1.26300
O800        O  0.17071212  0.38039732  0.38952079    -0.65500
O801        O  0.11098878  0.56671573  0.35392033    -0.77800
C802        C  0.11679283  0.46573224  0.29088508     0.85700
O803        O  0.09494931  0.48470160  0.31198258    -0.65000
Ni804      Ni  0.10471982  0.52315718  0.42478864     1.27400
Ni805      Ni  0.11937080  0.39161150  0.39570839     1.26100
H806        H  0.08329173  0.38593497  0.35204132     0.40200
O807        O  0.15704422  0.91272583  0.29511156    -0.79800
O808        O  0.13438710  0.89557298  0.43801515    -0.64400
O809        O  0.11870189  0.89724479  0.35193001    -1.11000
C810        C  0.12029597  0.10403615  0.36866089     1.07100
O811        O  0.08836190  0.95628834  0.44389918    -0.77700
O812        O  0.05645312  0.01604323  0.40116111    -0.65200
Ni813      Ni  0.14656474  0.84970721  0.32348084     1.34900
C814        C  0.04645463  0.99907970  0.37523577     0.85900
O815        O  0.12470286  0.81047774  0.39659916    -0.78200
O816        O  0.13736624  0.78136078  0.34795414    -0.88500
C817        C  0.11051286  0.92107831  0.45513873     0.85400
O818        O  0.19236929  0.86006320  0.34113249    -0.66700
O819        O  0.11288302  0.09243972  0.39678071    -0.86000
C820        C  0.20204791  0.87351534  0.36784374     0.86300
C821        C  0.12925324  0.77086803  0.37605448     1.07800
H822        H  0.15499568  0.98927986  0.39327372     0.39600
O823        O  0.13033450  0.97711643  0.39106075    -1.08600
O824        O  0.06869064  0.98437643  0.35339333    -0.65300
Ni825      Ni  0.12108153  0.98088814  0.34871282     1.26300
O826        O  0.17985011  0.88849855  0.38963052    -0.65500
O827        O  0.12385935  0.06507465  0.34752492    -0.77800
C828        C  0.13637168  0.95364246  0.28673435     0.85700
O829        O  0.11499372  0.98052680  0.30562876    -0.65000
Ni830      Ni  0.10167480  0.02282711  0.41941733     1.27400
Ni831      Ni  0.12789453  0.89393187  0.39461335     1.26100
H832        H  0.09397621  0.88524970  0.34992424     0.40200
C833        C  0.12496070  0.66485953  0.36522826    -0.15300
C834        C  0.12474993  0.70947426  0.38556332    -0.30500
H835        H  0.12833056  0.67345723  0.34086367     0.13700
H836        H  0.12010774  0.70097813  0.40984116     0.14300
C837        C  0.11805646  0.20968888  0.38068232    -0.15300
C838        C  0.12480127  0.16619120  0.36013497    -0.30500
H839        H  0.10922601  0.19916366  0.40403301     0.13700
H840        H  0.13315382  0.17632304  0.33663430     0.14300
C841        C  0.11408100  0.48952378  0.25956451    -0.15300
C842        C  0.14322372  0.50277444  0.24144432    -0.30500
H843        H  0.08739164  0.50026532  0.25201803     0.13700
H844        H  0.16997764  0.49785389  0.25018612     0.14300
C845        C  0.13754606  0.82872235  0.14004542    -0.15300
C846        C  0.13509925  0.78473336  0.11948918    -0.30500
H847        H  0.14287051  0.81923661  0.16371050     0.13700
H848        H  0.12969950  0.79452018  0.09586478     0.14300
C849        C  0.13193132  0.28460926  0.11296829    -0.15300
C850        C  0.13263775  0.32819696  0.13391213    -0.30500
H851        H  0.12661040  0.29409844  0.08929998     0.13700
H852        H  0.13758562  0.31831823  0.15761197     0.14300
C853        C  0.13998446  0.02622825  0.24521681    -0.15300
C854        C  0.13784924  0.97015029  0.25411186    -0.30500
H855        H  0.14245223  0.06068623  0.26230742     0.13700
H856        H  0.13902814  0.93527447  0.23699584     0.14300
C857        C  0.99847800  0.02055955  0.10965409    -0.15300
C858        C  0.01861070  0.00604804  0.13324770    -0.30500
H859        H  0.01197466  0.02776015  0.08737294     0.13700
H860        H  0.00644665  0.00135406  0.15616996     0.14300
C861        C  0.88021303  0.68215361  0.13765361    -0.15300
C862        C  0.88673584  0.72710686  0.11869359    -0.30500
H863        H  0.87281912  0.69132453  0.16157558     0.13700
H864        H  0.89394001  0.71777508  0.09475013     0.14300
C865        C  0.87805131  0.18847416  0.11446536    -0.15300
C866        C  0.88436132  0.22146723  0.13890370    -0.30500
H867        H  0.87106214  0.20996001  0.09345378     0.13700
H868        H  0.89071062  0.20028425  0.16015430     0.14300
C869        C  0.99225556  0.49999057  0.10780811    -0.15300
C870        C  0.01481646  0.50374603  0.13093158    -0.30500
H871        H  0.00355385  0.49304006  0.08465095     0.13700
H872        H  0.00431802  0.51277184  0.15411900     0.14300
C873        C  0.97748912  0.48576576  0.37487719    -0.15300
C874        C  0.00128311  0.50912942  0.39367527    -0.30500
H875        H  0.98662448  0.46721695  0.35287663     0.13700
H876        H  0.99088172  0.52942223  0.41493095     0.14300
C877        C  0.87521646  0.52524148  0.24053093    -0.15300
C878        C  0.86692821  0.49672590  0.26650649    -0.30500
H879        H  0.88390330  0.57061268  0.24130070     0.13700
H880        H  0.86139310  0.45001381  0.26557247     0.14300
C881        C  0.86843470  0.82536340  0.37404958    -0.15300
C882        C  0.87282096  0.78134068  0.39377856    -0.30500
H883        H  0.86284323  0.81553834  0.35037692     0.13700
H884        H  0.87950856  0.79106002  0.41721179     0.14300
C885        C  0.86437849  0.28263200  0.39407234    -0.15300
C886        C  0.85627236  0.32588704  0.37492002    -0.30500
H887        H  0.87395599  0.29330435  0.41655271     0.13700
H888        H  0.84605679  0.31538397  0.35264511     0.14300
C889        C  0.98358971  0.99686449  0.39552827    -0.15300
C890        C  0.00690374  0.99596800  0.37088166    -0.30500
H891        H  0.99437881  0.99852178  0.41820790     0.13700
H892        H  0.99708447  0.99113766  0.34799540     0.14300
C893        C  0.88116733  0.99887367  0.26712665    -0.15300
C894        C  0.88316868  0.02783725  0.24024263    -0.30500
H895        H  0.88393774  0.95147656  0.26667957     0.13700
H896        H  0.88341481  0.07541265  0.24050197     0.14300
C897        C  0.75753178  0.61833699  0.37627335    -0.15300
C898        C  0.73672958  0.61305659  0.35204274    -0.30500
H899        H  0.74521186  0.62393118  0.39916145     0.13700
H900        H  0.74941644  0.60597700  0.32937821     0.14300
C901        C  0.61737350  0.95465095  0.38515521    -0.15300
C902        C  0.62393567  0.91097461  0.36481572    -0.30500
H903        H  0.60952315  0.94488145  0.40881021     0.13700
H904        H  0.63257921  0.92112189  0.34136981     0.14300
C905        C  0.61824048  0.41040041  0.35980459    -0.15300
C906        C  0.61656853  0.45547830  0.37978193    -0.30500
H907        H  0.62340123  0.41859592  0.33555054     0.13700
H908        H  0.61204022  0.44712836  0.40408365     0.14300
C909        C  0.75292344  0.11277698  0.37869429    -0.15300
C910        C  0.73137866  0.12195020  0.35533019    -0.30500
H911        H  0.74106553  0.10648403  0.40162105     0.13700
H912        H  0.74375202  0.12708411  0.33248394     0.14300
C913        C  0.75106994  0.86550988  0.12568274    -0.15300
C914        C  0.77151677  0.88973347  0.14695813    -0.30500
H915        H  0.76338900  0.85160141  0.10375336     0.13700
H916        H  0.75877750  0.90278226  0.16888788     0.14300
C917        C  0.63611240  0.71590403  0.23023049    -0.15300
C918        C  0.63308513  0.74404942  0.25726181    -0.30500
H919        H  0.63427538  0.66843297  0.22935845     0.13700
H920        H  0.63129602  0.79160403  0.25773942     0.14300
C921        C  0.62958716  0.53016588  0.13339410    -0.15300
C922        C  0.62860520  0.56211838  0.10750132    -0.30500
H923        H  0.62868629  0.55356070  0.15517653     0.13700
H924        H  0.62863214  0.53887913  0.08570034     0.14300
C925        C  0.64352898  0.06182256  0.10581908    -0.15300
C926        C  0.63747775  0.02973968  0.13133085    -0.30500
H927        H  0.65013093  0.03898305  0.08434780     0.13700
H928        H  0.63142752  0.05274942  0.15284240     0.14300
C929        C  0.74168815  0.36484255  0.15343149    -0.15300
C930        C  0.76668883  0.37892417  0.13181540    -0.30500
H931        H  0.74964946  0.35950564  0.17685819     0.13700
H932        H  0.75898510  0.38468423  0.10835859     0.14300
C933        C  0.61654984  0.20788857  0.22980999    -0.15300
C934        C  0.61687833  0.23426462  0.25733665    -0.30500
H935        H  0.61368629  0.16065180  0.22805541     0.13700
H936        H  0.61669931  0.28185995  0.25860240     0.14300
C937        C  0.24107070  0.87081681  0.37409965    -0.15300
C938        C  0.26537285  0.84931762  0.35303892    -0.30500
H939        H  0.24989706  0.88662070  0.39602653     0.13700
H940        H  0.25623968  0.83505111  0.33093250     0.27100
C941        C  0.48577654  0.72232522  0.39759827    -0.15300
C942        C  0.51000598  0.73627409  0.37506568    -0.30500
H943        H  0.49508827  0.71254680  0.42019303     0.13700
H944        H  0.50109887  0.74480083  0.35221118     0.14300
C945        C  0.37169782  0.55946285  0.36455882    -0.15300
C946        C  0.36949785  0.51644791  0.38532893    -0.30500
H947        H  0.37199118  0.54909974  0.34023524     0.13700
H948        H  0.36942510  0.52694843  0.40962769     0.14300
C949        C  0.36838790  0.05960728  0.36654581    -0.15300
C950        C  0.37143487  0.01604676  0.38664135    -0.30500
H951        H  0.36618352  0.04962158  0.34235341     0.13700
H952        H  0.37399078  0.02605148  0.41079245     0.14300
C953        C  0.23179861  0.37073823  0.37286054    -0.15300
C954        C  0.25707915  0.36096267  0.35037715    -0.30500
H955        H  0.23967218  0.37379898  0.39644252     0.13700
H956        H  0.24896333  0.35908094  0.32683009     0.14300
C957        C  0.50027318  0.24095085  0.37641146    -0.15300
C958        C  0.47630826  0.23525576  0.40017303    -0.30500
H959        H  0.49112241  0.23975840  0.35317321     0.13700
H960        H  0.48588019  0.23428810  0.42327509     0.14300
C961        C  0.25037705  0.61878112  0.12289019    -0.15300
C962        C  0.27310780  0.63216589  0.14502051    -0.30500
H963        H  0.26081436  0.60982265  0.09967402     0.13700
H964        H  0.26218000  0.63966759  0.16823928     0.14300
C965        C  0.49455647  0.76300878  0.09578783    -0.15300
C966        C  0.51701239  0.75043152  0.11815023    -0.30500
H967        H  0.50576058  0.76988698  0.07268222     0.13700
H968        H  0.50636141  0.74497702  0.14151833     0.14300
C969        C  0.39728075  0.75924050  0.23428764    -0.15300
C970        C  0.39756211  0.73012466  0.26082459    -0.30500
H971        H  0.39821433  0.80681503  0.23451673     0.13700
H972        H  0.39932943  0.68259760  0.26055250     0.14300
C973        C  0.38013255  0.97167923  0.10938667    -0.15300
C974        C  0.37654738  0.92828172  0.12986418    -0.30500
H975        H  0.38479652  0.96146274  0.08519012     0.13700
H976        H  0.37269684  0.93851049  0.15412961     0.14300
C977        C  0.38709402  0.42815715  0.13153843    -0.15300
C978        C  0.38987849  0.47125894  0.11090129    -0.30500
H979        H  0.38100087  0.43864584  0.15553314     0.13700
H980        H  0.39566935  0.46078970  0.08686523     0.14300
C981        C  0.25052406  0.12207675  0.12021427    -0.15300
C982        C  0.27258940  0.14932718  0.13922475    -0.30500
H983        H  0.26149785  0.10014989  0.09964203     0.13700
H984        H  0.26109882  0.16991188  0.16000843     0.14300
C985        C  0.50312790  0.24828529  0.11936272    -0.15300
C986        C  0.52611590  0.23405939  0.09577935    -0.30500
H987        H  0.51280374  0.25328204  0.14230591     0.13700
H988        H  0.51584593  0.22745213  0.07312963     0.14300
C989        C  0.38725177  0.22577096  0.26401050    -0.15300
C990        C  0.38533450  0.25457121  0.23765842    -0.30500
H991        H  0.39186271  0.17872964  0.26383228     0.13700
H992        H  0.38370239  0.30213516  0.23796157     0.14300
C993        C  0.13216832  0.89261586  0.50643276    -0.15300
C994        C  0.10631011  0.91144510  0.48829570    -0.30500
H995        H  0.15734439  0.87437870  0.49681369     0.13700
H996        H  0.08137060  0.92885458  0.49893291     0.14300
C997        C  0.13292687  0.39263713  0.50705916    -0.15300
C998        C  0.10490520  0.40760361  0.49034648    -0.30500
H999        H  0.15797380  0.37630949  0.49621783     0.13700
H1000       H  0.08032855  0.42398455  0.50207078     0.14300
C1001       C  0.12589408  0.65835775  0.63553959    -0.15300
C1002       C  0.12414518  0.70160669  0.61491981    -0.30500
H1003       H  0.12797637  0.66879175  0.65968576     0.13700
H1004       H  0.12105713  0.69086972  0.59091874     0.14300
C1005       C  0.13588132  0.20223087  0.61127446    -0.15300
C1006       C  0.13443642  0.15856662  0.63159182    -0.30500
H1007       H  0.13387254  0.19252604  0.58702986     0.13700
H1008       H  0.13544449  0.16840334  0.65590423     0.14300
C1009       C  0.10472440  0.56078492  0.99227402    -0.15300
C1010       C  0.12954228  0.58542550  0.00984171    -0.30500
H1011       H  0.08133785  0.54014615  0.00347958     0.13700
H1012       H  0.15323150  0.60640669  0.99941443     0.14300
C1013       C  0.14143259  0.48874410  0.75830468    -0.15300
C1014       C  0.11406869  0.47485308  0.74047453    -0.30500
H1015       H  0.16899872  0.48586420  0.74883404     0.13700
H1016       H  0.08647933  0.48362107  0.74874988     0.14300
C1017       C  0.14576511  0.08423199  0.98935077    -0.15300
C1018       C  0.11893063  0.07983545  0.01101220    -0.30500
H1019       H  0.17316815  0.09375855  0.99545870     0.13700
H1020       H  0.09203907  0.06989567  0.00357276     0.14300
C1021       C  0.12603162  0.80574915  0.86879127    -0.15300
C1022       C  0.12246737  0.76202385  0.88903332    -0.30500
H1023       H  0.13085705  0.79561642  0.84460049     0.13700
H1024       H  0.11707065  0.77184458  0.91319031     0.14300
C1025       C  0.12123272  0.26322501  0.88229061    -0.15300
C1026       C  0.12047443  0.30612956  0.86150518    -0.30500
H1027       H  0.11880031  0.27394675  0.90657719     0.13700
H1028       H  0.12392454  0.29572323  0.83723696     0.14300
C1029       C  0.11441117  0.99486979  0.73647001    -0.15300
C1030       C  0.11247254  0.96778800  0.76350030    -0.30500
H1031       H  0.11412817  0.04245142  0.73577719     0.13700
H1032       H  0.10955036  0.92046899  0.76428423     0.14300
C1033       C  0.86611537  0.88545401  0.99493836    -0.15300
C1034       C  0.89397328  0.89803661  0.01225518    -0.30500
H1035       H  0.83944099  0.87734061  0.00529982     0.13700
H1036       H  0.92020416  0.90629536  0.00096788     0.14300
C1037       C  0.98922424  0.97087418  0.87784201    -0.15300
C1038       C  0.01190078  0.97352040  0.90100770    -0.30500
H1039       H  0.99998664  0.96693573  0.85436473     0.13700
H1040       H  0.00070591  0.97519342  0.92442819     0.14300
C1041       C  0.85473201  0.38343561  0.99404696    -0.15300
C1042       C  0.88281342  0.39218028  0.01222159    -0.30500
H1043       H  0.82751474  0.37870006  0.00393433     0.13700
H1044       H  0.90935033  0.39789174  0.00101918     0.14300
C1045       C  0.86012027  0.64323406  0.86725220    -0.15300
C1046       C  0.86106269  0.68683987  0.88816019    -0.30500
H1047       H  0.85808462  0.65316802  0.84314161     0.13700
H1048       H  0.86378721  0.67682306  0.91218701     0.14300
C1049       C  0.87629721  0.18718711  0.89045635    -0.15300
C1050       C  0.87452587  0.14263142  0.87029539    -0.30500
H1051       H  0.87983755  0.17853693  0.91452345     0.13700
H1052       H  0.87052857  0.15166182  0.84633224     0.14300
C1053       C  0.98024206  0.49004175  0.89398779    -0.15300
C1054       C  0.00444719  0.48085919  0.87061464    -0.30500
H1055       H  0.98983668  0.49723745  0.91683929     0.13700
H1056       H  0.99579637  0.47629210  0.84732805     0.14300
C1057       C  0.89009764  0.58057712  0.51904970    -0.15300
C1058       C  0.86482011  0.59802099  0.50001382    -0.30500
H1059       H  0.91460229  0.56067492  0.50892787     0.13700
H1060       H  0.84012251  0.61904030  0.50884542     0.14300
C1061       C  0.98975125  0.48656292  0.63450441    -0.15300
C1062       C  0.01333318  0.48789646  0.61028290    -0.30500
H1063       H  0.99928903  0.48849239  0.65759870     0.13700
H1064       H  0.00306104  0.48991022  0.58743393     0.14300
C1065       C  0.88824383  0.46077433  0.75989967    -0.15300
C1066       C  0.87678602  0.51537344  0.75389609    -0.30500
H1067       H  0.89500435  0.43066548  0.74107789     0.13700
H1068       H  0.86745455  0.54387299  0.77272109     0.14300
C1069       C  0.88733301  0.08981938  0.51996990    -0.15300
C1070       C  0.85957794  0.09790153  0.50170744    -0.30500
H1071       H  0.91334001  0.07804790  0.50902481     0.13700
H1072       H  0.83297896  0.10957357  0.51133719     0.14300
C1073       C  0.86502204  0.82860739  0.64401741    -0.15300
C1074       C  0.87152514  0.78476153  0.62361883    -0.30500
H1075       H  0.85592851  0.81873145  0.66738104     0.13700
H1076       H  0.88112441  0.79455537  0.60036881     0.14300
C1077       C  0.87539701  0.28437971  0.62429949    -0.15300
C1078       C  0.86787760  0.32836538  0.64434755    -0.30500
H1079       H  0.88488698  0.29395447  0.60099572     0.13700
H1080       H  0.85938831  0.31878953  0.66789261     0.14300
C1081       C  0.01230276  0.00159363  0.60952710    -0.15300
C1082       C  0.98977658  0.98778510  0.63335884    -0.30500
H1083       H  0.00108551  0.01299722  0.58783033     0.13700
H1084       H  0.00014395  0.97892665  0.65567208     0.14300
C1085       C  0.88142945  0.01556083  0.75504609    -0.15300
C1086       C  0.87252626  0.96021869  0.76211401    -0.30500
H1087       H  0.88719019  0.04666186  0.77313238     0.13700
H1088       H  0.86364241  0.93083680  0.74428974     0.14300
C1089       C  0.34299773  0.83929310  0.51100630    -0.15300
C1090       C  0.36854678  0.84371162  0.48841389    -0.30500
H1091       H  0.31502746  0.83207697  0.50577556     0.13700
H1092       H  0.39631283  0.84904132  0.49486461     0.14300
C1093       C  0.25789777  0.86060542  0.65405806    -0.15300
C1094       C  0.23602679  0.86433137  0.63062789    -0.30500
H1095       H  0.24663199  0.86121616  0.67746342     0.13700
H1096       H  0.24750935  0.86550944  0.60730100     0.14300
C1097       C  0.37186796  0.33444147  0.50988690    -0.15300
C1098       C  0.34297306  0.33759254  0.49240997    -0.30500
H1099       H  0.39819753  0.32861765  0.49815253     0.13700
H1100       H  0.31588440  0.34182647  0.50273352     0.14300
C1101       C  0.38047413  0.52573828  0.60800752    -0.15300
C1102       C  0.37710663  0.57067081  0.62796669    -0.30500
H1103       H  0.38435687  0.53385663  0.58363533     0.13700
H1104       H  0.37313109  0.56183649  0.65227864     0.14300
C1105       C  0.37070163  0.07055641  0.64067324    -0.15300
C1106       C  0.36794072  0.02694167  0.61993543    -0.30500
H1107       H  0.37088577  0.06086863  0.66494409     0.13700
H1108       H  0.36740843  0.03710978  0.59573407     0.14300
C1109       C  0.24530811  0.37217716  0.62704843    -0.15300
C1110       C  0.26758497  0.36617338  0.65011724    -0.30500
H1111       H  0.25643488  0.37662404  0.60374599     0.13700
H1112       H  0.25638694  0.36326559  0.67347495     0.14300
C1113       C  0.35719661  0.63621299  0.98714617    -0.15300
C1114       C  0.38399862  0.64278703  0.00646591    -0.30500
H1115       H  0.32929858  0.63395935  0.99574437     0.13700
H1116       H  0.41139467  0.64602130  0.99660552     0.14300
C1117       C  0.26183282  0.61034880  0.85224078    -0.15300
C1118       C  0.23826369  0.59742090  0.87554380    -0.30500
H1119       H  0.25183069  0.61744305  0.82960048     0.13700
H1120       H  0.24783440  0.58809738  0.89808347     0.14300
C1121       C  0.37174520  0.75089599  0.75997375    -0.15300
C1122       C  0.38148851  0.72795747  0.73269341    -0.30500
H1123       H  0.36485094  0.79713904  0.76205728     0.13700
H1124       H  0.39118276  0.68299839  0.73091264     0.14300
C1125       C  0.36783756  0.15173429  0.98760904    -0.15300
C1126       C  0.39528508  0.16514287  0.00530427    -0.30500
H1127       H  0.34198477  0.13770078  0.99760245     0.13700
H1128       H  0.42072294  0.17828243  0.99402653     0.14300
C1129       C  0.37148471  0.95230195  0.88758843    -0.15300
C1130       C  0.36035032  0.90785462  0.87014716    -0.30500
H1131       H  0.38328782  0.94361608  0.90936230     0.13700
H1132       H  0.34841168  0.91722118  0.84849078     0.14300
C1133       C  0.37963895  0.45109039  0.87503074    -0.15300
C1134       C  0.37629981  0.40703632  0.85460589    -0.30500
H1135       H  0.38448676  0.44113786  0.89874035     0.13700
H1136       H  0.37090761  0.41660804  0.83096376     0.14300
C1137       C  0.25973345  0.11447819  0.86764349    -0.15300
C1138       C  0.23699569  0.10301395  0.84529056    -0.30500
H1139       H  0.24892704  0.12098744  0.89097037     0.13700
H1140       H  0.24772912  0.09821261  0.82183526     0.14300
C1141       C  0.38443380  0.20840051  0.75059949    -0.15300
C1142       C  0.39134704  0.26404854  0.74262991    -0.30500
H1143       H  0.37867231  0.17631798  0.73297818     0.13700
H1144       H  0.39375809  0.29723696  0.76040162     0.14300
C1145       C  0.63315788  0.64416503  0.48739623    -0.15300
C1146       C  0.60813172  0.66052932  0.50909065    -0.30500
H1147       H  0.65918148  0.62726353  0.49358072     0.13700
H1148       H  0.58243325  0.67692981  0.50169068     0.14300
C1149       C  0.73868169  0.62189572  0.62384139    -0.15300
C1150       C  0.75963034  0.60805130  0.64714413    -0.30500
H1151       H  0.75090561  0.63440886  0.60181914     0.13700
H1152       H  0.74666829  0.59684475  0.66911506     0.14300
C1153       C  0.50595924  0.74668854  0.62507492    -0.15300
C1154       C  0.48551917  0.74908588  0.60039715    -0.30500
H1155       H  0.49352113  0.73901142  0.64767000     0.13700
H1156       H  0.49843754  0.75363919  0.57771262     0.14300
C1157       C  0.63518725  0.14089162  0.50783448    -0.15300
C1158       C  0.60808273  0.15278344  0.48938749    -0.30500
H1159       H  0.66171538  0.12852116  0.49831253     0.13700
H1160       H  0.58204438  0.16491197  0.50014251     0.14300
C1161       C  0.62820326  0.95639161  0.61936419    -0.15300
C1162       C  0.62641290  0.91311560  0.64009751    -0.30500
H1163       H  0.62592607  0.94600345  0.59522462     0.13700
H1164       H  0.62834858  0.92308546  0.66430809     0.14300
C1165       C  0.62286354  0.45667656  0.60907901    -0.15300
C1166       C  0.62782665  0.41345084  0.62914133    -0.30500
H1167       H  0.61584570  0.44647522  0.58578833     0.13700
H1168       H  0.63503633  0.42417212  0.65233800     0.14300
C1169       C  0.76568995  0.11133019  0.65406955    -0.15300
C1170       C  0.74483120  0.12350802  0.63061925    -0.30500
H1171       H  0.75294742  0.10188706  0.67636831     0.13700
H1172       H  0.75717346  0.13414990  0.60834554     0.14300
C1173       C  0.51248117  0.23849580  0.62616071    -0.15300
C1174       C  0.48961268  0.22809737  0.60375968    -0.30500
H1175       H  0.50209371  0.24447449  0.64963792     0.13700
H1176       H  0.50059638  0.22016545  0.58058797     0.14300
C1177       C  0.61445530  0.84343823  0.98788241    -0.15300
C1178       C  0.64179955  0.85088426  0.00649341    -0.30500
H1179       H  0.58735352  0.83845123  0.99812520     0.13700
H1180       H  0.66937334  0.85505615  0.99729663     0.14300
C1181       C  0.73084051  0.85335429  0.85207321    -0.15300
C1182       C  0.75269492  0.86384834  0.87516716    -0.30500
H1183       H  0.74258982  0.84374906  0.82932237     0.13700
H1184       H  0.74121630  0.87501542  0.89780780     0.14300
C1185       C  0.50561119  0.73086470  0.89298430    -0.15300
C1186       C  0.48233981  0.74719490  0.87205470    -0.30500
H1187       H  0.49483180  0.71701261  0.91530829     0.13700
H1188       H  0.49231317  0.75960018  0.84928037     0.14300
C1189       C  0.60443644  0.76593036  0.75492706    -0.15300
C1190       C  0.61989174  0.71615569  0.74396810    -0.30500
H1191       H  0.59351740  0.79701731  0.73912035     0.13700
H1192       H  0.63353131  0.68785178  0.75962573     0.14300
C1193       C  0.61944168  0.35950256  0.99315740    -0.15300
C1194       C  0.64884905  0.36451670  0.01000711    -0.30500
H1195       H  0.59331487  0.35454433  0.00523036     0.13700
H1196       H  0.67561370  0.36850193  0.99907856     0.14300
C1197       C  0.62659281  0.52915084  0.88169369    -0.15300
C1198       C  0.62749356  0.57144792  0.86036474    -0.30500
H1199       H  0.62174769  0.54091634  0.90568967     0.13700
H1200       H  0.63089222  0.56002850  0.83622289     0.14300
C1201       C  0.63099506  0.07228339  0.87234394    -0.15300
C1202       C  0.62459777  0.02762288  0.89151964    -0.30500
H1203       H  0.63758514  0.06319263  0.84826975     0.13700
H1204       H  0.61715297  0.03631515  0.91547625     0.14300
C1205       C  0.76453629  0.34835124  0.85144521    -0.15300
C1206       C  0.73909425  0.35374386  0.87397824    -0.30500
H1207       H  0.75645014  0.34423694  0.82794738     0.13700
H1208       H  0.74687607  0.35721544  0.89757665     0.14300
C1209       C  0.51112099  0.23670803  0.89516233    -0.15300
C1210       C  0.49028759  0.23621163  0.87082475    -0.30500
H1211       H  0.49823191  0.23701227  0.91802239     0.13700
H1212       H  0.50253183  0.23345874  0.84778735     0.14300
C1213       C  0.62743113  0.22881547  0.76543022    -0.15300
C1214       C  0.63344396  0.25400002  0.73807440    -0.30500
H1215       H  0.62064077  0.18257043  0.76631649     0.13700
H1216       H  0.63671105  0.30121137  0.73688839     0.14300
loop_ 
_geom_bond_atom_site_label_1 
_geom_bond_atom_site_label_2 
_geom_bond_distance 
_geom_bond_site_symmetry_2 
_ccdc_geom_bond_type 
O1           Ni7   1.932       .  S
O1           C22   1.271       .  A
O2          Ni25   1.894       .  S
O2           C11   1.264       .  A
O3           Ni7   1.912       .  S
O3          Ni25   1.908       .  S
O3          Ni19   1.912       .  S
O3           H26   0.966       .  S
C4           O21   1.271       .  A
C4           O13   1.279       .  A
C4         C1197   1.473       .  S
O5          Ni24   1.956       .  S
O5           C11   1.279       .  A
O6          Ni24   1.923       .  S
O6            C8   1.274       .  A
Ni7          O10   1.935       .  S
Ni7          O12   1.897       .  S
C8           O18   1.265       .  A
C8         C1206   1.479       .  S
O9          Ni25   1.897       .  S
O9           C15   1.267       .  A
O10          C15   1.277       .  A
C11        C1213   1.484       .  S
O12          C14   1.266       .  A
O13         Ni24   1.946       .  S
C14          O20   1.276       .  A
C14        C1209   1.477       .  S
C15        C1201   1.473       .  S
H16          O17   0.966       .  S
O17         Ni25   1.904       .  S
O17         Ni19   1.915       .  S
O17         Ni24   1.921       .  S
O18         Ni19   1.916       .  S
Ni19         O23   1.913       .  S
Ni19         O21   1.896       .  S
O20         Ni25   1.945       .  S
C22          O23   1.263       .  A
C22        C1193   1.469       .  S
O27         Ni33   1.918       .  S
O27          C48   1.266       .  A
O28         Ni51   1.920       .  S
O28          C37   1.274       .  A
O29         Ni33   1.901       .  S
O29         Ni51   1.903       .  S
O29         Ni45   1.899       .  S
O29          H52   0.966       .  S
C30          O47   1.263       .  A
C30          O39   1.275       .  A
C30        C1202   1.478   1_565  S
O31         Ni50   1.929       .  S
O31          C37   1.272       .  A
O32         Ni50   1.899       .  S
O32          C34   1.269       .  A
Ni33         O36   1.909       .  S
Ni33         O38   1.894       .  S
C34          O44   1.281       .  A
C34        C1181   1.477       .  S
O35         Ni51   1.936       .  S
O35          C41   1.280       .  A
O36          C41   1.276       .  A
C37        C1189   1.481       .  S
O38          C40   1.264       .  A
O39         Ni50   1.937       .  S
C40          O46   1.278       .  A
C40        C1185   1.482       .  S
C41        C1198   1.482       .  S
H42          O43   0.966       .  S
O43         Ni51   1.936       .  S
O43         Ni45   1.923       .  S
O43         Ni50   1.915       .  S
O44         Ni45   1.955       .  S
Ni45         O49   1.921       .  S
Ni45         O47   1.897       .  S
O46         Ni51   1.953       .  S
C48          O49   1.267       .  A
C48        C1177   1.465       .  S
O53         Ni59   1.929       .  S
O53          C74   1.272       .  A
O54         Ni77   1.896       .  S
O54          C63   1.263       .  A
O55         Ni59   1.909       .  S
O55         Ni77   1.900       .  S
O55         Ni71   1.902       .  S
O55          H78   0.967       .  S
C56          O73   1.272       .  A
C56          O65   1.277       .  A
C56        C1161   1.473   1_545  S
O57         Ni76   1.952       .  S
O57          C63   1.276       .  A
O58         Ni76   1.912       .  S
O58          C60   1.274       .  A
Ni59         O62   1.936       .  S
Ni59         O64   1.909       .  S
C60          O70   1.274       .  A
C60        C1170   1.485       .  S
O61         Ni77   1.899       .  S
O61          C67   1.271       .  A
O62          C67   1.279       .  A
C63        C1214   1.481       .  S
O64          C66   1.268       .  A
O65         Ni76   1.931       .  S
C66          O72   1.270       .  A
C66        C1173   1.486       .  S
C67        C1166   1.470       .  S
H68          O69   0.966       .  S
O69         Ni77   1.914       .  S
O69         Ni71   1.925       .  S
O69         Ni76   1.918       .  S
O70         Ni71   1.933       .  S
Ni71         O75   1.933       .  S
Ni71         O73   1.906       .  S
O72         Ni77   1.935       .  S
C74          O75   1.271       .  A
C74        C1157   1.494       .  S
O79         Ni85   1.912       .  S
O79         C100   1.264       .  A
O80        Ni103   1.917       .  S
O80          C89   1.271       .  A
O81         Ni85   1.894       .  S
O81        Ni103   1.903       .  S
O81         Ni97   1.912       .  S
O81         H104   0.966       .  S
C82          O99   1.274       .  A
C82          O91   1.277       .  A
C82        C1165   1.477       .  S
O83        Ni102   1.939       .  S
O83          C89   1.274       .  A
O84        Ni102   1.904       .  S
O84          C86   1.272       .  A
Ni85         O88   1.912       .  S
Ni85         O90   1.898       .  S
C86          O96   1.278       .  A
C86        C1149   1.494       .  S
O87        Ni103   1.933       .  S
O87          C93   1.280       .  A
O88          C93   1.278       .  A
C89        C1190   1.487       .  S
O90          C92   1.265       .  A
O91        Ni102   1.920       .  S
C92          O98   1.271       .  A
C92        C1153   1.479       .  S
C93        C1162   1.479       .  S
H94          O95   0.966       .  S
O95        Ni103   1.915       .  S
O95         Ni97   1.921       .  S
O95        Ni102   1.898       .  S
O96         Ni97   1.951       .  S
Ni97        O101   1.944       .  S
Ni97         O99   1.915       .  S
O98        Ni103   1.934       .  S
C100        O101   1.274       .  A
C100       C1146   1.477       .  S
O105       Ni111   1.927       .  S
O105        C126   1.271       .  A
O106       Ni129   1.904       .  S
O106        C115   1.268       .  A
O107       Ni111   1.914       .  S
O107       Ni129   1.913       .  S
O107       Ni123   1.906       .  S
O107        H130   0.966       .  S
C108        O125   1.267       .  A
C108        O117   1.276       .  A
C108       C1129   1.477   1_545  S
O109       Ni128   1.939       .  S
O109        C115   1.274       .  A
O110       Ni128   1.917       .  S
O110        C112   1.273       .  A
Ni111       O114   1.921       .  S
Ni111       O116   1.903       .  S
C112        O122   1.274       .  A
C112       C1137   1.487       .  S
O113       Ni129   1.921       .  S
O113        C119   1.275       .  A
O114        C119   1.275       .  A
C115       C1141   1.481       .  S
O116        C118   1.268       .  A
O117       Ni128   1.930       .  S
C118        O124   1.270       .  A
C118       C1210   1.486       .  S
C119       C1134   1.481       .  S
H120        O121   0.966       .  S
O121       Ni129   1.921       .  S
O121       Ni123   1.921       .  S
O121       Ni128   1.921       .  S
O122       Ni123   1.936       .  S
Ni123       O127   1.920       .  S
Ni123       O125   1.903       .  S
O124       Ni129   1.936       .  S
C126        O127   1.264       .  A
C126       C1125   1.487       .  S
O131       Ni137   1.929       .  S
O131        C152   1.273       .  A
O132       Ni155   1.870       .  S
O132        C141   1.253       .  A
O133       Ni137   1.909       .  S
O133       Ni155   1.882       .  S
O133       Ni149   1.898       .  S
O133        H156   0.966       .  S
C134        O151   1.269       .  A
C134        O143   1.273       .  A
C134       C1133   1.476       .  S
O135       Ni154   1.938       .  S
O135        C141   1.272       .  A
O136       Ni154   1.897       .  S
O136        C138   1.270       .  A
Ni137       O140   1.948       .  S
Ni137       O142   1.913       .  S
C138        O148   1.280       .  A
C138       C1117   1.473       .  S
O139       Ni155   1.892       .  S
O139        C145   1.269       .  A
O140        C145   1.281       .  A
C141       C1121   1.461       .  S
O142        C144   1.268       .  A
O143       Ni154   1.928       .  S
C144        O150   1.266       .  A
C144       C1186   1.487       .  S
C145       C1130   1.472       .  S
H146        O147   0.966       .  S
O147       Ni155   1.928       .  S
O147       Ni149   1.930       .  S
O147       Ni154   1.925       .  S
O148       Ni149   1.947       .  S
Ni149       O153   1.923       .  S
Ni149       O151   1.905       .  S
O150       Ni155   1.932       .  S
C152        O153   1.271       .  A
C152       C1113   1.482       .  S
O157       Ni163   1.924       .  S
O157        C178   1.269       .  A
O158       Ni181   1.911       .  S
O158        C167   1.270       .  A
O159       Ni163   1.906       .  S
O159       Ni181   1.911       .  S
O159       Ni175   1.906       .  S
O159        H182   0.966       .  S
C160        O177   1.267       .  A
C160        O169   1.274       .  A
C160       C1101   1.478       .  S
O161       Ni180   1.927       .  S
O161        C167   1.270       .  A
O162       Ni180   1.900       .  S
O162        C164   1.268       .  A
Ni163       O166   1.915       .  S
Ni163       O168   1.903       .  S
C164        O174   1.278       .  A
C164       C1110   1.476       .  S
O165       Ni181   1.922       .  S
O165        C171   1.275       .  A
O166        C171   1.275       .  A
C167       C1142   1.476       .  S
O168        C170   1.267       .  A
O169       Ni180   1.922       .  S
C170        O176   1.274       .  A
C170       C1174   1.481       .  S
C171       C1105   1.478       .  S
H172        O173   0.967       .  S
O173       Ni181   1.924       .  S
O173       Ni175   1.926       .  S
O173       Ni180   1.914       .  S
O174       Ni175   1.943       .  S
Ni175       O179   1.926       .  S
Ni175       O177   1.906       .  S
O176       Ni181   1.941       .  S
C178        O179   1.268       .  A
C178       C1097   1.474       .  S
O183       Ni189   1.931       .  S
O183        C204   1.273       .  A
O184       Ni207   1.879       .  S
O184        C193   1.256       .  A
O185       Ni189   1.910       .  S
O185       Ni207   1.892       .  S
O185       Ni201   1.906       .  S
O185        H208   0.966       .  S
C186        O203   1.275       .  A
C186        O195   1.277       .  A
C186       C1106   1.472   1_565  S
O187       Ni206   1.939       .  S
O187        C193   1.274       .  A
O188       Ni206   1.902       .  S
O188        C190   1.267       .  A
Ni189       O192   1.944       .  S
Ni189       O194   1.910       .  S
C190        O200   1.274       .  A
C190       C1093   1.472       .  S
O191       Ni207   1.891       .  S
O191        C197   1.269       .  A
O192        C197   1.280       .  A
C193       C1122   1.466       .  S
O194        C196   1.267       .  A
O195       Ni206   1.926       .  S
C196        O202   1.267       .  A
C196       C1154   1.475       .  S
C197       C1102   1.470       .  S
H198        O199   0.966       .  S
O199       Ni207   1.906       .  S
O199       Ni201   1.910       .  S
O199       Ni206   1.913       .  S
O200       Ni201   1.927       .  S
Ni201       O205   1.920       .  S
Ni201       O203   1.912       .  S
O202       Ni207   1.921       .  S
C204        O205   1.269       .  A
C204       C1089   1.478       .  S
O209       Ni215   1.917   1_545  S
O209        C230   1.265       .  A
O210       Ni233   1.904       .  S
O210        C219   1.267       .  A
O211       Ni215   1.904   1_545  S
O211       Ni233   1.898       .  S
O211       Ni227   1.897       .  S
O211        H234   0.966       .  S
C212        O229   1.265       .  A
C212        O221   1.270       .  A
C212       C1077   1.472       .  S
O213       Ni232   1.925       .  S
O213        C219   1.269       .  A
O214       Ni232   1.896       .  S
O214        C216   1.272       .  A
Ni215       O218   1.923       .  S
Ni215       O220   1.896       .  S
C216        O226   1.286       .  A
C216       C1169   1.476       .  S
O217       Ni233   1.918   1_565  S
O217        C223   1.277       .  A
O218        C223   1.277       .  A
C219       C1085   1.476       .  S
O220        C222   1.265       .  A
O221       Ni232   1.925       .  S
C222        O228   1.268       .  A
C222       C1082   1.478       .  S
C223       C1073   1.476       .  S
H224        O225   0.966       .  S
O225       Ni233   1.941       .  S
O225       Ni227   1.931       .  S
O225       Ni232   1.918       .  S
O226       Ni227   1.964       .  S
Ni227       O231   1.945       .  S
Ni227       O229   1.900       .  S
O228       Ni233   1.932   1_565  S
C230        O231   1.275       .  A
C230       C1069   1.481       .  S
O235       Ni241   1.913       .  S
O235        C256   1.264       .  A
O236       Ni259   1.899       .  S
O236        C245   1.265       .  A
O237       Ni241   1.901       .  S
O237       Ni259   1.895       .  S
O237       Ni253   1.904       .  S
O237        H260   0.966       .  S
C238        O255   1.269       .  A
C238        O247   1.274       .  A
C238       C1074   1.476       .  S
O239       Ni258   1.944       .  S
O239        C245   1.274       .  A
O240       Ni258   1.900       .  S
O240        C242   1.272       .  A
Ni241       O244   1.916       .  S
Ni241       O246   1.904       .  S
C242        O252   1.283       .  A
C242       C1150   1.480       .  S
O243       Ni259   1.922       .  S
O243        C249   1.278       .  A
O244        C249   1.278       .  A
C245       C1066   1.486       .  S
O246        C248   1.266       .  A
O247       Ni258   1.930       .  S
C248        O254   1.265       .  A
C248       C1061   1.482       .  S
C249       C1078   1.472       .  S
H250        O251   0.966       .  S
O251       Ni259   1.928       .  S
O251       Ni253   1.933       .  S
O251       Ni258   1.911       .  S
O252       Ni253   1.964       .  S
Ni253       O257   1.947       .  S
Ni253       O255   1.903       .  S
O254       Ni259   1.924       .  S
C256        O257   1.275       .  A
C256       C1057   1.480       .  S
O261       Ni267   1.920       .  S
O261        C282   1.267       .  A
O262       Ni285   1.909       .  S
O262        C271   1.268       .  A
O263       Ni267   1.901       .  S
O263       Ni285   1.900       .  S
O263       Ni279   1.899       .  S
O263        H286   0.966       .  S
C264        O281   1.267       .  A
C264        O273   1.273       .  A
C264       C1049   1.475       .  S
O265       Ni284   1.931       .  S
O265        C271   1.270       .  A
O266       Ni284   1.891       .  S
O266        C268   1.267       .  A
Ni267       O270   1.915       .  S
Ni267       O272   1.893       .  S
C268        O278   1.285       .  A
C268       C1205   1.476       .  S
O269       Ni285   1.918       .  S
O269        C275   1.276       .  A
O270        C275   1.277       .  A
C271       C1065   1.478       .  S
O272        C274   1.263       .  A
O273       Ni284   1.923       .  S
C274        O280   1.272       .  A
C274       C1053   1.472       .  S
C275       C1045   1.472       .  S
H276        O277   0.966       .  S
O277       Ni285   1.930       .  S
O277       Ni279   1.933       .  S
O277       Ni284   1.915       .  S
O278       Ni279   1.957       .  S
Ni279       O283   1.947       .  S
Ni279       O281   1.904       .  S
O280       Ni285   1.936       .  S
C282        O283   1.276       .  A
C282       C1041   1.494       .  S
O287       Ni293   1.923       .  S
O287        C308   1.272       .  A
O288       Ni311   1.904       .  S
O288        C297   1.267       .  A
O289       Ni293   1.899       .  S
O289       Ni311   1.892       .  S
O289       Ni305   1.905       .  S
O289        H312   0.967       .  S
C290        O307   1.273       .  A
C290        O299   1.274       .  A
C290       C1046   1.471       .  S
O291       Ni310   1.931       .  S
O291        C297   1.271       .  A
O292       Ni310   1.909       .  S
O292        C294   1.272       .  A
Ni293       O296   1.929   1_565  S
Ni293       O298   1.908       .  S
C294        O304   1.272       .  A
C294       C1182   1.483       .  S
O295       Ni311   1.910   1_545  S
O295        C301   1.276       .  A
O296        C301   1.280       .  A
C297       C1086   1.475       .  S
O298        C300   1.268       .  A
O299       Ni310   1.919       .  S
C300        O306   1.272       .  A
C300       C1037   1.488       .  S
C301       C1050   1.471       .  S
H302        O303   0.966       .  S
O303       Ni311   1.917       .  S
O303       Ni305   1.918       .  S
O303       Ni310   1.912       .  S
O304       Ni305   1.932       .  S
Ni305       O309   1.919       .  S
Ni305       O307   1.910       .  S
O306       Ni311   1.937       .  S
C308        O309   1.267       .  A
C308       C1033   1.480       .  S
O313       Ni319   1.931   1_545  S
O313        C334   1.273       .  A
O314       Ni337   1.894       .  S
O314        C323   1.262   1_565  A
O315       Ni319   1.911       .  S
O315       Ni337   1.903       .  S
O315       Ni331   1.907   1_565  S
O315        H338   0.966       .  S
C316        O333   1.272       .  A
C316        O325   1.277       .  A
C316       C1025   1.473       .  S
O317       Ni336   1.940       .  S
O317        C323   1.275       .  A
O318       Ni336   1.907       .  S
O318        C320   1.269       .  A
Ni319       O322   1.934       .  S
Ni319       O324   1.905       .  S
C320        O330   1.279       .  A
C320       C1138   1.484       .  S
O321       Ni337   1.903       .  S
O321        C327   1.271       .  A
O322        C327   1.278       .  A
C323       C1030   1.474   1_545  S
O324        C326   1.266       .  A
O325       Ni336   1.928       .  S
C326        O332   1.273       .  A
C326       C1038   1.482       .  S
C327       C1021   1.473       .  S
H328        O329   0.967       .  S
O329       Ni337   1.912   1_545  S
O329       Ni331   1.919       .  S
O329       Ni336   1.914       .  S
O330       Ni331   1.947       .  S
Ni331       O335   1.928       .  S
Ni331       O333   1.906       .  S
O332       Ni337   1.941       .  S
C334        O335   1.270       .  A
C334       C1017   1.489       .  S
O339       Ni345   1.923       .  S
O339        C360   1.268       .  A
O340       Ni363   1.916       .  S
O340        C349   1.268       .  A
O341       Ni345   1.901       .  S
O341       Ni363   1.910       .  S
O341       Ni357   1.908       .  S
O341        H364   0.966       .  S
C342        O359   1.274       .  A
C342        O351   1.279       .  A
C342       C1022   1.477       .  S
O343       Ni362   1.948       .  S
O343        C349   1.274       .  A
O344       Ni362   1.900       .  S
O344        C346   1.270       .  A
Ni345       O348   1.923       .  S
Ni345       O350   1.901       .  S
C346        O356   1.274       .  A
C346       C1118   1.486       .  S
O347       Ni363   1.914       .  S
O347        C353   1.276       .  A
O348        C353   1.279       .  A
C349       C1013   1.484       .  S
O350        C352   1.267       .  A
O351       Ni362   1.928       .  S
C352        O358   1.268       .  A
C352       C1054   1.479       .  S
C353       C1026   1.473       .  S
H354        O355   0.966       .  S
O355       Ni363   1.909       .  S
O355       Ni357   1.920       .  S
O355       Ni362   1.902       .  S
O356       Ni357   1.939       .  S
Ni357       O361   1.933       .  S
Ni357       O359   1.912       .  S
O358       Ni363   1.928       .  S
C360        O361   1.271       .  A
C360       C1009   1.479       .  S
O365       Ni371   1.915       .  S
O365        C386   1.268       .  A
O366       Ni389   1.909       .  S
O366        C375   1.269       .  A
O367       Ni371   1.896       .  S
O367       Ni389   1.904       .  S
O367       Ni383   1.908       .  S
O367        H390   0.966       .  S
C368        O385   1.272       .  A
C368        O377   1.282       .  A
C368       C1005   1.473       .  S
O369       Ni388   1.957       .  S
O369        C375   1.279       .  A
O370       Ni388   1.913       .  S
O370        C372   1.272       .  A
Ni371       O374   1.913       .  S
Ni371       O376   1.894       .  S
C372        O382   1.269       .  A
C372       C1109   1.480       .  S
O373       Ni389   1.928       .  S
O373        C379   1.278       .  A
O374        C379   1.277       .  A
C375       C1014   1.484       .  S
O376        C378   1.264       .  A
O377       Ni388   1.943       .  S
C378        O384   1.274       .  A
C378       C1062   1.474       .  S
C379       C1001   1.477       .  S
H380        O381   0.966       .  S
O381       Ni389   1.907       .  S
O381       Ni383   1.912       .  S
O381       Ni388   1.907       .  S
O382       Ni383   1.925       .  S
Ni383       O387   1.923       .  S
Ni383       O385   1.898       .  S
O384       Ni389   1.941       .  S
C386        O387   1.266       .  A
C386        C997   1.480       .  S
O391       Ni397   1.915   1_565  S
O391        C412   1.268       .  A
O392       Ni415   1.885       .  S
O392        C401   1.261       .  A
O393       Ni397   1.902   1_565  S
O393       Ni415   1.893       .  S
O393       Ni409   1.910       .  S
O393        H416   0.966       .  S
C394        O411   1.273       .  A
C394        O403   1.278       .  A
C394       C1002   1.474       .  S
O395       Ni414   1.949       .  S
O395        C401   1.277       .  A
O396       Ni414   1.913       .  S
O396        C398   1.273       .  A
Ni397       O400   1.922       .  S
Ni397       O402   1.900       .  S
C398        O408   1.270       .  A
C398       C1094   1.473       .  S
O399       Ni415   1.914   1_545  S
O399        C405   1.273       .  A
O400        C405   1.278       .  A
C401       C1029   1.472       .  S
O402        C404   1.265       .  A
O403       Ni414   1.935       .  S
C404        O410   1.270   1_545  A
C404       C1081   1.473       .  S
C405       C1006   1.474       .  S
H406        O407   0.966       .  S
O407       Ni415   1.913       .  S
O407       Ni409   1.917       .  S
O407       Ni414   1.914       .  S
O408       Ni409   1.921       .  S
Ni409       O413   1.930       .  S
Ni409       O411   1.904       .  S
O410       Ni415   1.929       .  S
C412        O413   1.269       .  A
C412        C993   1.483       .  S
O417       Ni423   1.937       .  S
O417        C438   1.272       .  A
O418       Ni441   1.939       .  S
O418        C427   1.274       .  A
O419       Ni423   1.915       .  S
O419       Ni441   1.933       .  S
O419       Ni435   1.927       .  S
O419        H442   0.966       .  S
C420        O437   1.272       .  A
C420        O429   1.278       .  A
C420        C977   1.473       .  S
O421       Ni440   1.914       .  S
O421        C427   1.265       .  A
O422       Ni440   1.900       .  S
O422        C424   1.264       .  A
Ni423       O426   1.922       .  S
Ni423       O428   1.893       .  S
C424        O434   1.264       .  A
C424        C985   1.475       .  S
O425       Ni441   1.901       .  S
O425        C431   1.267       .  A
O426        C431   1.273       .  A
C427       C1126   1.473       .  S
O428        C430   1.269       .  A
O429       Ni440   1.930       .  S
C430        O436   1.283       .  A
C430        C982   1.471       .  S
C431        C973   1.472   1_545  S
H432        O433   0.967       .  S
O433       Ni441   1.901       .  S
O433       Ni435   1.893       .  S
O433       Ni440   1.907       .  S
O434       Ni435   1.922       .  S
Ni435       O439   1.882       .  S
Ni435       O437   1.907       .  S
O436       Ni441   1.958       .  S
C438        O439   1.257       .  A
C438        C990   1.468       .  S
O443       Ni449   1.942       .  S
O443        C464   1.274       .  A
O444       Ni467   1.923       .  S
O444        C453   1.268       .  A
O445       Ni449   1.912       .  S
O445       Ni467   1.920       .  S
O445       Ni461   1.911       .  S
O445        H468   0.966       .  S
C446        O463   1.270       .  A
C446        O455   1.273       .  A
C446        C974   1.471       .  S
O447       Ni466   1.918       .  S
O447        C453   1.267       .  A
O448       Ni466   1.903       .  S
O448        C450   1.266       .  A
Ni449       O452   1.932       .  S
Ni449       O454   1.900       .  S
C450        O460   1.272       .  A
C450        C965   1.480       .  S
O451       Ni467   1.898       .  S
O451        C457   1.268       .  A
O452        C457   1.276       .  A
C453       C1114   1.470       .  S
O454        C456   1.269       .  A
O455       Ni466   1.918       .  S
C456        O462   1.279       .  A
C456        C962   1.477       .  S
C457        C978   1.473       .  S
H458        O459   0.966       .  S
O459       Ni467   1.911       .  S
O459       Ni461   1.913       .  S
O459       Ni466   1.918       .  S
O460       Ni461   1.936       .  S
Ni461       O465   1.899       .  S
Ni461       O463   1.909       .  S
O462       Ni467   1.952       .  S
C464        O465   1.264       .  A
C464        C969   1.478       .  S
O469       Ni475   1.935       .  S
O469        C490   1.273       .  A
O470       Ni493   1.931       .  S
O470        C479   1.272       .  A
O471       Ni475   1.909       .  S
O471       Ni493   1.916       .  S
O471       Ni487   1.904       .  S
O471        H494   0.966       .  S
C472        O489   1.266       .  A
C472        O481   1.274       .  A
C472        C949   1.472       .  S
O473       Ni492   1.915       .  S
O473        C479   1.269       .  A
O474       Ni492   1.900       .  S
O474        C476   1.264       .  A
Ni475       O478   1.922       .  S
Ni475       O480   1.898       .  S
C476        O486   1.273       .  A
C476        C958   1.479       .  S
O477       Ni493   1.906       .  S
O477        C483   1.272       .  A
O478        C483   1.276       .  A
C479       C1098   1.484       .  S
O480        C482   1.267       .  A
O481       Ni492   1.926       .  S
C482        O488   1.281       .  A
C482        C954   1.481       .  S
C483        C946   1.469       .  S
H484        O485   0.966       .  S
O485       Ni493   1.915       .  S
O485       Ni487   1.911       .  S
O485       Ni492   1.917       .  S
O486       Ni487   1.938       .  S
Ni487       O491   1.892       .  S
Ni487       O489   1.899       .  S
O488       Ni493   1.953       .  S
C490        O491   1.260       .  A
C490        C989   1.472       .  S
O495       Ni501   1.939       .  S
O495        C516   1.274       .  A
O496       Ni519   1.920       .  S
O496        C505   1.268       .  A
O497       Ni501   1.911       .  S
O497       Ni519   1.918       .  S
O497       Ni513   1.914       .  S
O497        H520   0.966       .  S
C498        O515   1.271       .  A
C498        O507   1.274       .  A
C498        C945   1.471       .  S
O499       Ni518   1.918       .  S
O499        C505   1.267       .  A
O500       Ni518   1.902       .  S
O500        C502   1.266       .  A
Ni501       O504   1.934       .  S
Ni501       O506   1.898       .  S
C502        O512   1.274       .  A
C502        C941   1.478       .  S
O503       Ni519   1.896       .  S
O503        C509   1.267       .  A
O504        C509   1.277       .  A
C505       C1090   1.467       .  S
O506        C508   1.268       .  A
O507       Ni518   1.913       .  S
C508        O514   1.280       .  A
C508        C938   1.477       .  S
C509        C950   1.472   1_565  S
H510        O511   0.966       .  S
O511       Ni519   1.908       .  S
O511       Ni513   1.908       .  S
O511       Ni518   1.913       .  S
O512       Ni513   1.936       .  S
Ni513       O517   1.900       .  S
Ni513       O515   1.912       .  S
O514       Ni519   1.956       .  S
C516        O517   1.265       .  A
C516        C970   1.479       .  S
O521       Ni527   1.936       .  S
O521        C542   1.276       .  A
O522       Ni545   1.937       .  S
O522        C531   1.275       .  A
O523       Ni527   1.900       .  S
O523       Ni545   1.918       .  S
O523       Ni539   1.947       .  S
O523        H546   0.966       .  S
C524        O541   1.287       .  A
C524        O533   1.278       .  A
C524        C925   1.505       .  S
O525       Ni544   1.909       .  S
O525        C531   1.267       .  A
O526       Ni544   1.899       .  S
O526        C528   1.263       .  A
Ni527       O530   1.941       .  S
Ni527       O532   1.889       .  S
C528        O538   1.268       .  A
C528        C986   1.472       .  S
O529       Ni545   1.955       .  S
O529        C535   1.282       .  A
O530        C535   1.277       .  A
C531       C1194   1.480       .  S
O532        C534   1.267       .  A
O533       Ni544   1.930       .  S
C534        O540   1.285       .  A
C534        C929   1.474       .  S
C535        C921   1.511       .  S
H536        O537   0.966       .  S
O537       Ni545   1.936       .  S
O537       Ni539   1.892       .  S
O537       Ni544   1.901       .  S
O538       Ni539   1.923       .  S
Ni539       O543   1.903       .  S
Ni539       O541   1.962       .  S
O540       Ni545   1.954       .  S
C542        O543   1.267       .  A
C542        C933   1.481       .  S
O547       Ni553   1.946       .  S
O547        C568   1.279       .  A
O548       Ni571   1.920       .  S
O548        C557   1.267       .  A
O549       Ni553   1.908       .  S
O549       Ni571   1.914       .  S
O549       Ni565   1.940       .  S
O549        H572   0.966       .  S
C550        O567   1.286       .  A
C550        O559   1.281       .  A
C550        C922   1.512       .  S
O551       Ni570   1.922       .  S
O551        C557   1.270       .  A
O552       Ni570   1.907       .  S
O552        C554   1.268       .  A
Ni553       O556   1.934       .  S
Ni553       O558   1.921       .  S
C554        O564   1.270       .  A
C554        C966   1.485       .  S
O555       Ni571   1.956       .  S
O555        C561   1.284       .  A
O556        C561   1.277       .  A
C557       C1178   1.479       .  S
O558        C560   1.275       .  A
O559       Ni570   1.945       .  S
C560        O566   1.271       .  A
C560        C913   1.487       .  S
C561        C926   1.503   1_565  S
H562        O563   0.966       .  S
O563       Ni571   1.936       .  S
O563       Ni565   1.897       .  S
O563       Ni570   1.905       .  S
O564       Ni565   1.934       .  S
Ni565       O569   1.895       .  S
Ni565       O567   1.959       .  S
O566       Ni571   1.926       .  S
C568        O569   1.266       .  A
C568        C917   1.474       .  S
O573       Ni579   1.951       .  S
O573        C594   1.274       .  A
O574       Ni597   1.943       .  S
O574        C583   1.276       .  A
O575       Ni579   1.913       .  S
O575       Ni597   1.930       .  S
O575       Ni591   1.915       .  S
O575        H598   0.966       .  S
C576        O593   1.272       .  A
C576        O585   1.279       .  A
C576        C905   1.477       .  S
O577       Ni596   1.921       .  S
O577        C583   1.268       .  A
O578       Ni596   1.913       .  S
O578        C580   1.267       .  A
Ni579       O582   1.926       .  S
Ni579       O584   1.900       .  S
C580        O590   1.263       .  A
C580        C957   1.480       .  S
O581       Ni597   1.907       .  S
O581        C587   1.270       .  A
O582        C587   1.276       .  A
C583       C1158   1.481       .  S
O584        C586   1.270       .  A
O585       Ni596   1.932       .  S
C586        O592   1.285       .  A
C586        C910   1.484       .  S
C587        C901   1.476   1_545  S
H588        O589   0.967       .  S
O589       Ni597   1.906       .  S
O589       Ni591   1.897       .  S
O589       Ni596   1.910       .  S
O590       Ni591   1.918       .  S
Ni591       O595   1.881       .  S
Ni591       O593   1.909       .  S
O592       Ni597   1.964       .  S
C594        O595   1.257       .  A
C594        C934   1.472       .  S
O599       Ni605   1.945       .  S
O599        C620   1.274       .  A
O600       Ni623   1.922       .  S
O600        C609   1.269       .  A
O601       Ni605   1.920       .  S
O601       Ni623   1.925       .  S
O601       Ni617   1.917       .  S
O601        H624   0.966       .  S
C602        O619   1.270       .  A
C602        O611   1.280       .  A
C602        C902   1.471       .  S
O603       Ni622   1.933       .  S
O603        C609   1.275       .  A
O604       Ni622   1.911       .  S
O604        C606   1.268       .  A
Ni605       O608   1.930       .  S
Ni605       O610   1.903       .  S
C606        O616   1.268       .  A
C606        C942   1.481       .  S
O607       Ni623   1.905       .  S
O607        C613   1.269       .  A
O608        C613   1.277       .  A
C609       C1145   1.491       .  S
O610        C612   1.269       .  A
O611       Ni622   1.944       .  S
C612        O618   1.276       .  A
C612        C898   1.475       .  S
C613        C906   1.476       .  S
H614        O615   0.966       .  S
O615       Ni623   1.898       .  S
O615       Ni617   1.897       .  S
O615       Ni622   1.908       .  S
O616       Ni617   1.933       .  S
Ni617       O621   1.891       .  S
Ni617       O619   1.894       .  S
O618       Ni623   1.934       .  S
C620        O621   1.261       .  A
C620        C918   1.476       .  S
O625       Ni631   1.960       .  S
O625        C646   1.279       .  A
O626       Ni649   1.931       .  S
O626        C635   1.269       .  A
O627       Ni631   1.922       .  S
O627       Ni649   1.925       .  S
O627       Ni643   1.912       .  S
O627        H650   0.966       .  S
C628        O645   1.273       .  A
C628        O637   1.277       .  A
C628        C881   1.478       .  S
O629       Ni648   1.934   1_545  S
O629        C635   1.272       .  A
O630       Ni648   1.899       .  S
O630        C632   1.267       .  A
Ni631       O634   1.939       .  S
Ni631       O636   1.922       .  S
C632        O642   1.275   1_565  A
C632        C889   1.480       .  S
O633       Ni649   1.900       .  S
O633        C639   1.270       .  A
O634        C639   1.278       .  A
C635       C1070   1.493       .  S
O636        C638   1.276       .  A
O637       Ni648   1.928       .  S
C638        O644   1.273       .  A
C638        C909   1.492       .  S
C639        C885   1.476       .  S
H640        O641   0.966       .  S
O641       Ni649   1.908       .  S
O641       Ni643   1.916       .  S
O641       Ni648   1.914   1_545  S
O642       Ni643   1.947       .  S
Ni643       O647   1.910       .  S
Ni643       O645   1.913   1_545  S
O644       Ni649   1.938       .  S
C646        O647   1.269       .  A
C646        C893   1.495   1_545  S
O651       Ni657   1.934       .  S
O651        C672   1.271       .  A
O652       Ni675   1.922       .  S
O652        C661   1.269       .  A
O653       Ni657   1.927       .  S
O653       Ni675   1.929       .  S
O653       Ni669   1.937       .  S
O653        H676   0.966       .  S
C654        O671   1.269       .  A
C654        O663   1.278       .  A
C654        C886   1.476       .  S
O655       Ni674   1.935       .  S
O655        C661   1.275       .  A
O656       Ni674   1.912       .  S
O656        C658   1.270       .  A
Ni657       O660   1.933       .  S
Ni657       O662   1.902       .  S
C658        O668   1.270       .  A
C658        C873   1.489       .  S
O659       Ni675   1.901       .  S
O659        C665   1.264       .  A
O660        C665   1.272       .  A
C661       C1058   1.492       .  S
O662        C664   1.274       .  A
O663       Ni674   1.942       .  S
C664        O670   1.279       .  A
C664        C897   1.482       .  S
C665        C882   1.478       .  S
H666        O667   0.966       .  S
O667       Ni675   1.897       .  S
O667       Ni669   1.897       .  S
O667       Ni674   1.910       .  S
O668       Ni669   1.944       .  S
Ni669       O673   1.887       .  S
Ni669       O671   1.900       .  S
O670       Ni675   1.949       .  S
C672        O673   1.260       .  A
C672        C878   1.472       .  S
O677       Ni683   1.937       .  S
O677        C698   1.274       .  A
O678       Ni701   1.938       .  S
O678        C687   1.275       .  A
O679       Ni683   1.911       .  S
O679       Ni701   1.905       .  S
O679       Ni695   1.888       .  S
O679        H702   0.966       .  S
C680        O697   1.258       .  A
C680        O689   1.275       .  A
C680        C861   1.490       .  S
O681       Ni700   1.926       .  S
O681        C687   1.273       .  A
O682       Ni700   1.895       .  S
O682        C684   1.269       .  A
Ni683       O686   1.906       .  S
Ni683       O688   1.925       .  S
C684        O694   1.281       .  A
C684        C869   1.477       .  S
O685       Ni701   1.952       .  S
O685        C691   1.291       .  A
O686        C691   1.272       .  A
C687       C1042   1.483       .  S
O688        C690   1.275       .  A
O689       Ni700   1.952       .  S
C690        O696   1.263       .  A
C690        C930   1.477       .  S
C691        C866   1.479       .  S
H692        O693   0.966       .  S
O693       Ni701   1.956       .  S
O693       Ni695   1.920       .  S
O693       Ni700   1.920       .  S
O694       Ni695   1.956       .  S
Ni695       O699   1.892       .  S
Ni695       O697   1.894       .  S
O696       Ni701   1.905       .  S
C698        O699   1.261       .  A
C698        C877   1.472       .  S
O703       Ni709   1.950       .  S
O703        C724   1.280       .  A
O704       Ni727   1.928       .  S
O704        C713   1.269       .  A
O705       Ni709   1.909       .  S
O705       Ni727   1.923       .  S
O705       Ni721   1.949   1_565  S
O705        H728   0.966       .  S
C706        O723   1.294       .  A
C706        O715   1.272       .  A
C706        C865   1.481       .  S
O707       Ni726   1.908   1_565  S
O707        C713   1.262       .  A
O708       Ni726   1.899       .  S
O708        C710   1.264       .  A
Ni709       O712   1.962       .  S
Ni709       O714   1.897       .  S
C710        O720   1.271       .  A
C710        C857   1.475       .  S
O711       Ni727   1.892       .  S
O711        C717   1.263       .  A
O712        C717   1.281       .  A
C713       C1034   1.466       .  S
O714        C716   1.270       .  A
O715       Ni726   1.896       .  S
C716        O722   1.284       .  A
C716        C914   1.479       .  S
C717        C862   1.489       .  S
H718        O719   0.967   1_545  S
O719       Ni727   1.898       .  S
O719       Ni721   1.895   1_565  S
O719       Ni726   1.896   1_565  S
O720       Ni721   1.936       .  S
Ni721       O725   1.926       .  S
Ni721       O723   1.965       .  S
O722       Ni727   1.961       .  S
C724        O725   1.277   1_565  A
C724        C894   1.499   1_565  S
O729       Ni735   1.939       .  S
O729        C750   1.274       .  A
O730       Ni753   1.941       .  S
O730        C739   1.272       .  A
O731       Ni735   1.905       .  S
O731       Ni753   1.924       .  S
O731       Ni747   1.917       .  S
O731        H754   0.966       .  S
C732        O749   1.278       .  A
C732        O741   1.277       .  A
C732        C845   1.478       .  S
O733       Ni752   1.916   1_545  S
O733        C739   1.264       .  A
O734       Ni752   1.899       .  S
O734        C736   1.266       .  A
Ni735       O738   1.918       .  S
Ni735       O740   1.909       .  S
C736        O746   1.268   1_565  A
C736        C858   1.481   1_565  S
O737       Ni753   1.914       .  S
O737        C743   1.273       .  A
O738        C743   1.275       .  A
C739       C1018   1.477       .  S
O740        C742   1.274       .  A
O741       Ni752   1.916       .  S
C742        O748   1.274       .  A
C742        C981   1.485       .  S
C743        C849   1.475       .  S
H744        O745   0.967       .  S
O745       Ni753   1.908       .  S
O745       Ni747   1.907       .  S
O745       Ni752   1.901   1_545  S
O746       Ni747   1.933       .  S
Ni747       O751   1.907       .  S
Ni747       O749   1.925   1_545  S
O748       Ni753   1.937       .  S
C750        O751   1.268       .  A
C750        C853   1.480       .  S
O755       Ni761   1.951       .  S
O755        C776   1.276       .  A
O756       Ni779   1.932       .  S
O756        C765   1.271       .  A
O757       Ni761   1.904       .  S
O757       Ni779   1.916       .  S
O757       Ni773   1.907       .  S
O757        H780   0.966       .  S
C758        O775   1.277       .  A
C758        O767   1.277       .  A
C758        C850   1.471       .  S
O759       Ni778   1.921       .  S
O759        C765   1.270       .  A
O760       Ni778   1.905       .  S
O760        C762   1.269       .  A
Ni761       O764   1.933       .  S
Ni761       O766   1.905       .  S
C762        O772   1.270       .  A
C762        C870   1.487       .  S
O763       Ni779   1.911       .  S
O763        C769   1.276       .  A
O764        C769   1.280       .  A
C765       C1010   1.490       .  S
O766        C768   1.271       .  A
O767       Ni778   1.921       .  S
C768        O774   1.273       .  A
C768        C961   1.487       .  S
C769        C846   1.474       .  S
H770        O771   0.967       .  S
O771       Ni779   1.910       .  S
O771       Ni773   1.906       .  S
O771       Ni778   1.903       .  S
O772       Ni773   1.934       .  S
Ni773       O777   1.916       .  S
Ni773       O775   1.916       .  S
O774       Ni779   1.937       .  S
C776        O777   1.269       .  A
C776        C842   1.486       .  S
O781       Ni787   1.963       .  S
O781        C802   1.282       .  A
O782       Ni805   1.926       .  S
O782        C791   1.269       .  A
O783       Ni787   1.900       .  S
O783       Ni805   1.904       .  S
O783       Ni799   1.899       .  S
O783        H806   0.967       .  S
C784        O801   1.279       .  A
C784        O793   1.278       .  A
C784        C833   1.473       .  S
O785       Ni804   1.914       .  S
O785        C791   1.265       .  A
O786       Ni804   1.898       .  S
O786        C788   1.264       .  A
Ni787       O790   1.945       .  S
Ni787       O792   1.922       .  S
C788        O798   1.277       .  A
C788        C874   1.482       .  S
O789       Ni805   1.905       .  S
O789        C795   1.278       .  A
O790        C795   1.284       .  A
C791        C998   1.465       .  S
O792        C794   1.273       .  A
O793       Ni804   1.913       .  S
C794        O800   1.269       .  A
C794        C953   1.487       .  S
C795        C837   1.474       .  S
H796        O797   0.966       .  S
O797       Ni805   1.911       .  S
O797       Ni799   1.893       .  S
O797       Ni804   1.888       .  S
O798       Ni799   1.955       .  S
Ni799       O803   1.905       .  S
Ni799       O801   1.929       .  S
O800       Ni805   1.927       .  S
C802        O803   1.270       .  A
C802        C841   1.486       .  S
O807       Ni813   1.938       .  S
O807        C828   1.274       .  A
O808       Ni831   1.925       .  S
O808        C817   1.268       .  A
O809       Ni813   1.907       .  S
O809       Ni831   1.916       .  S
O809       Ni825   1.918       .  S
O809        H832   0.966       .  S
C810        O827   1.278       .  A
C810        O819   1.278       .  A
C810        C838   1.479       .  S
O811       Ni830   1.920   1_565  S
O811        C817   1.267       .  A
O812       Ni830   1.898       .  S
O812        C814   1.267   1_545  A
Ni813       O816   1.923       .  S
Ni813       O818   1.914       .  S
C814        O824   1.274       .  A
C814        C890   1.491       .  S
O815       Ni831   1.912       .  S
O815        C821   1.274       .  A
O816        C821   1.276       .  A
C817        C994   1.470       .  S
O818        C820   1.273       .  A
O819       Ni830   1.917       .  S
C820        O826   1.273       .  A
C820        C937   1.488       .  S
C821        C834   1.474       .  S
H822        O823   0.966       .  S
O823       Ni831   1.909       .  S
O823       Ni825   1.902       .  S
O823       Ni830   1.897   1_565  S
O824       Ni825   1.946       .  S
Ni825       O829   1.908       .  S
Ni825       O827   1.926   1_565  S
O826       Ni831   1.933       .  S
C828        O829   1.270       .  A
C828        C854   1.478       .  S
C833        C834   1.345       .  D
C833        H835   1.087       .  S
C834        H836   1.087       .  S
C837        C838   1.347       .  D
C837        H839   1.087       .  S
C838        H840   1.087       .  S
C841        C842   1.347       .  D
C841        H843   1.087       .  S
C842        H844   1.086       .  S
C845        C846   1.347       .  D
C845        H847   1.087       .  S
C846        H848   1.087       .  S
C849        C850   1.347       .  D
C849        H851   1.087       .  S
C850        H852   1.087       .  S
C853        C854   1.343   1_545  D
C853        H855   1.087       .  S
C854        H856   1.087       .  S
C857        C858   1.346   1_655  D
C857        H859   1.088   1_655  S
C858        H860   1.086       .  S
C861        C862   1.341       .  D
C861        H863   1.087       .  S
C862        H864   1.087       .  S
C865        C866   1.332       .  D
C865        H867   1.088       .  S
C866        H868   1.087       .  S
C869        C870   1.345   1_655  D
C869        H871   1.087   1_655  S
C870        H872   1.086       .  S
C873        C874   1.343   1_655  D
C873        H875   1.086       .  S
C874        H876   1.088   1_455  S
C877        C878   1.338       .  D
C877        H879   1.087       .  S
C878        H880   1.088       .  S
C881        C882   1.346       .  D
C881        H883   1.087       .  S
C882        H884   1.087       .  S
C885        C886   1.344       .  D
C885        H887   1.087       .  S
C886        H888   1.087       .  S
C889        C890   1.349   1_655  D
C889        H891   1.087       .  S
C890        H892   1.086   1_455  S
C893        C894   1.354   1_565  D
C893        H895   1.087       .  S
C894        H896   1.086       .  S
C897        C898   1.345       .  D
C897        H899   1.086       .  S
C898        H900   1.087       .  S
C901        C902   1.343       .  D
C901        H903   1.087       .  S
C902        H904   1.087       .  S
C905        C906   1.343       .  D
C905        H907   1.087       .  S
C906        H908   1.087       .  S
C909        C910   1.345       .  D
C909        H911   1.087       .  S
C910        H912   1.087       .  S
C913        C914   1.344       .  D
C913        H915   1.086       .  S
C914        H916   1.087       .  S
C917        C918   1.340       .  D
C917        H919   1.087       .  S
C918        H920   1.088       .  S
C921        C922   1.355       .  D
C921        H923   1.086       .  S
C922        H924   1.086       .  S
C925        C926   1.351       .  D
C925        H927   1.087       .  S
C926        H928   1.086       .  S
C929        C930   1.335       .  D
C929        H931   1.087       .  S
C930        H932   1.087       .  S
C933        C934   1.341       .  D
C933        H935   1.086       .  S
C934        H936   1.088       .  S
C937        C938   1.346       .  D
C937        H939   1.087       .  S
C938        H940   1.087       .  S
C941        C942   1.343       .  D
C941        H943   1.087       .  S
C942        H944   1.087       .  S
C945        C946   1.344       .  D
C945        H947   1.087       .  S
C946        H948   1.087       .  S
C949        C950   1.342       .  D
C949        H951   1.087       .  S
C950        H952   1.087       .  S
C953        C954   1.343       .  D
C953        H955   1.087       .  S
C954        H956   1.087       .  S
C957        C958   1.343       .  D
C957        H959   1.087       .  S
C958        H960   1.087       .  S
C961        C962   1.347       .  D
C961        H963   1.086       .  S
C962        H964   1.087       .  S
C965        C966   1.347       .  D
C965        H967   1.087       .  S
C966        H968   1.086       .  S
C969        C970   1.344       .  D
C969        H971   1.087       .  S
C970        H972   1.087       .  S
C973        C974   1.345       .  D
C973        H975   1.087       .  S
C974        H976   1.087       .  S
C977        C978   1.343       .  D
C977        H979   1.087       .  S
C978        H980   1.087       .  S
C981        C982   1.344       .  D
C981        H983   1.086       .  S
C982        H984   1.087       .  S
C985        C986   1.343       .  D
C985        H987   1.087       .  S
C986        H988   1.087       .  S
C989        C990   1.337       .  D
C989        H991   1.087       .  S
C990        H992   1.087       .  S
C993        C994   1.346       .  D
C993        H995   1.086       .  S
C994        H996   1.088       .  S
C997        C998   1.344       .  D
C997        H999   1.086       .  S
C998       H1000   1.088       .  S
C1001      C1002   1.347       .  D
C1001      H1003   1.087       .  S
C1002      H1004   1.087       .  S
C1005      C1006   1.341       .  D
C1005      H1007   1.087       .  S
C1006      H1008   1.087       .  S
C1009      C1010   1.348   1_556  D
C1009      H1011   1.087   1_556  S
C1010      H1012   1.086   1_554  S
C1013      C1014   1.346       .  D
C1013      H1015   1.087       .  S
C1014      H1016   1.087       .  S
C1017      C1018   1.346   1_556  D
C1017      H1019   1.086       .  S
C1018      H1020   1.088       .  S
C1021      C1022   1.344       .  D
C1021      H1023   1.087       .  S
C1022      H1024   1.087       .  S
C1025      C1026   1.344       .  D
C1025      H1027   1.087       .  S
C1026      H1028   1.087       .  S
C1029      C1030   1.338       .  D
C1029      H1031   1.087   1_565  S
C1030      H1032   1.087       .  S
C1033      C1034   1.340   1_556  D
C1033      H1035   1.086   1_556  S
C1034      H1036   1.088       .  S
C1037      C1038   1.348   1_655  D
C1037      H1039   1.086       .  S
C1038      H1040   1.087       .  S
C1041      C1042   1.354   1_556  D
C1041      H1043   1.086   1_556  S
C1042      H1044   1.088       .  S
C1045      C1046   1.347       .  D
C1045      H1047   1.087       .  S
C1046      H1048   1.087       .  S
C1049      C1050   1.343       .  D
C1049      H1051   1.087       .  S
C1050      H1052   1.087       .  S
C1053      C1054   1.342   1_655  D
C1053      H1055   1.088       .  S
C1054      H1056   1.086   1_455  S
C1057      C1058   1.345       .  D
C1057      H1059   1.088       .  S
C1058      H1060   1.086       .  S
C1061      C1062   1.342   1_655  D
C1061      H1063   1.086       .  S
C1062      H1064   1.088       .  S
C1065      C1066   1.348       .  D
C1065      H1067   1.087       .  S
C1066      H1068   1.087       .  S
C1069      C1070   1.346       .  D
C1069      H1071   1.088       .  S
C1070      H1072   1.086       .  S
C1073      C1074   1.348       .  D
C1073      H1075   1.087       .  S
C1074      H1076   1.087       .  S
C1077      C1078   1.346       .  D
C1077      H1079   1.087       .  S
C1078      H1080   1.087       .  S
C1081      C1082   1.345   1_445  D
C1081      H1083   1.088       .  S
C1082      H1084   1.086   1_655  S
C1085      C1086   1.343   1_545  D
C1085      H1087   1.087       .  S
C1086      H1088   1.087       .  S
C1089      C1090   1.341       .  D
C1089      H1091   1.086       .  S
C1090      H1092   1.088       .  S
C1093      C1094   1.340       .  D
C1093      H1095   1.087       .  S
C1094      H1096   1.087       .  S
C1097      C1098   1.348       .  D
C1097      H1099   1.089       .  S
C1098      H1100   1.086       .  S
C1101      C1102   1.342       .  D
C1101      H1103   1.086       .  S
C1102      H1104   1.087       .  S
C1105      C1106   1.348       .  D
C1105      H1107   1.087       .  S
C1106      H1108   1.087       .  S
C1109      C1110   1.342       .  D
C1109      H1111   1.087       .  S
C1110      H1112   1.087       .  S
C1113      C1114   1.343   1_556  D
C1113      H1115   1.086       .  S
C1114      H1116   1.088   1_554  S
C1117      C1118   1.347       .  D
C1117      H1119   1.087       .  S
C1118      H1120   1.086       .  S
C1121      C1122   1.332       .  D
C1121      H1123   1.087       .  S
C1122      H1124   1.087       .  S
C1125      C1126   1.343   1_556  D
C1125      H1127   1.086       .  S
C1126      H1128   1.088   1_554  S
C1129      C1130   1.342       .  D
C1129      H1131   1.087       .  S
C1130      H1132   1.087       .  S
C1133      C1134   1.348       .  D
C1133      H1135   1.087       .  S
C1134      H1136   1.087       .  S
C1137      C1138   1.346       .  D
C1137      H1139   1.087       .  S
C1138      H1140   1.087       .  S
C1141      C1142   1.343       .  D
C1141      H1143   1.087       .  S
C1142      H1144   1.087       .  S
C1145      C1146   1.345       .  D
C1145      H1147   1.086       .  S
C1146      H1148   1.088       .  S
C1149      C1150   1.350       .  D
C1149      H1151   1.086       .  S
C1150      H1152   1.087       .  S
C1153      C1154   1.350       .  D
C1153      H1155   1.087       .  S
C1154      H1156   1.087       .  S
C1157      C1158   1.347       .  D
C1157      H1159   1.086       .  S
C1158      H1160   1.088       .  S
C1161      C1162   1.347       .  D
C1161      H1163   1.087       .  S
C1162      H1164   1.086       .  S
C1165      C1166   1.345       .  D
C1165      H1167   1.086       .  S
C1166      H1168   1.087       .  S
C1169      C1170   1.345       .  D
C1169      H1171   1.087       .  S
C1170      H1172   1.086       .  S
C1173      C1174   1.346       .  D
C1173      H1175   1.086       .  S
C1174      H1176   1.087       .  S
C1177      C1178   1.341   1_556  D
C1177      H1179   1.088       .  S
C1178      H1180   1.086   1_554  S
C1181      C1182   1.345       .  D
C1181      H1183   1.087       .  S
C1182      H1184   1.087       .  S
C1185      C1186   1.342       .  D
C1185      H1187   1.088       .  S
C1186      H1188   1.086       .  S
C1189      C1190   1.345       .  D
C1189      H1191   1.086       .  S
C1190      H1192   1.087       .  S
C1193      C1194   1.350   1_556  D
C1193      H1195   1.088   1_556  S
C1194      H1196   1.086   1_554  S
C1197      C1198   1.349       .  D
C1197      H1199   1.087       .  S
C1198      H1200   1.086       .  S
C1201      C1202   1.341       .  D
C1201      H1203   1.087       .  S
C1202      H1204   1.087       .  S
C1205      C1206   1.336       .  D
C1205      H1207   1.087       .  S
C1206      H1208   1.087       .  S
C1209      C1210   1.345       .  D
C1209      H1211   1.087       .  S
C1210      H1212   1.086       .  S
C1213      C1214   1.342       .  D
C1213      H1215   1.087       .  S
C1214      H1216   1.087       .  S
