geometry optimzed in LAMMPS
_audit_creation_date              2020-12-01 
_audit_creation_method            'lammps2cif' 
_symmetry_space_group_name_H-M    'P1' 
_symmetry_Int_Tables_number       1 
_symmetry_cell_setting            triclinic 
loop_ 
_symmetry_equiv_pos_as_xyz 
  x,y,z 
_cell_length_a                    35.96417107 
_cell_length_b                    26.60635069267603 
_cell_length_c                    44.56098087160282 
_cell_angle_alpha                 89.48273068714747 
_cell_angle_beta                  90.65998329819587 
_cell_angle_gamma                 89.5563845243614 
loop_ 
_atom_site_label 
_atom_site_type_symbol 
_atom_site_fract_x 
_atom_site_fract_y 
_atom_site_fract_z 
_atom_site_charge 
O1          O  0.90844189  0.28632745  0.98261627    -0.82200
C2          C  0.85327989  0.09218253  0.01068636     0.97100
O3          O  0.83823483  0.12683670  0.99545441    -0.71300
O4          O  0.82884593  0.21122351  0.02297924    -0.74900
Al5        Al  0.85021935  0.19444637  0.98621838     1.49000
C6          C  0.83402748  0.25265004  0.03567916     0.92400
O7          O  0.91638553  0.21950999  0.05692984    -0.81100
O8          O  0.96698425  0.17277100  0.98517615    -0.74700
Al9        Al  0.91169873  0.25043557  0.01938060     1.90100
O10         O  0.94228493  0.14821130  0.04309987    -0.73800
O11         O  0.91027744  0.12123297  0.96087205    -0.73600
O12         O  0.88687506  0.09548654  0.01884247    -0.79300
O13         O  0.86675374  0.17676580  0.94849323    -0.77500
O14         O  0.89564257  0.19412287  0.00230900    -1.13600
O15         O  0.85133630  0.26337343  0.97222195    -0.72800
C16         C  0.87796419  0.29373198  0.96889396     0.97900
C17         C  0.93412368  0.17987756  0.06339524     0.94300
Al18       Al  0.92423505  0.13902096  0.00195896     1.55600
O19         O  0.86423398  0.27541722  0.03220862    -0.77400
C20         C  0.88822914  0.14138959  0.94159210     0.98500
C21         C  0.98153516  0.21169626  0.99607319     0.93300
O22         O  0.96257099  0.24057834  0.01201547    -0.82800
O23         O  0.85282950  0.28769057  0.77743785    -0.82200
C24         C  0.91855409  0.10055791  0.74478049     0.97100
O25         O  0.93322346  0.13745281  0.75758302    -0.71300
O26         O  0.93627319  0.22634644  0.73324230    -0.74900
Al27       Al  0.91736090  0.20223747  0.76998241     1.49000
C28         C  0.92784457  0.26923810  0.72316096     0.92400
O29         O  0.84882410  0.22757869  0.70154610    -0.81100
O30         O  0.80121623  0.17361735  0.77319628    -0.74700
Al31       Al  0.85137516  0.25574302  0.73967110     1.90100
O32         O  0.82754686  0.15295810  0.71435565    -0.73800
O33         O  0.85985204  0.12444227  0.79684846    -0.73600
O34         O  0.88394384  0.10035846  0.73965894    -0.79300
O35         O  0.90440975  0.17797757  0.80754658    -0.77500
O36         O  0.87127822  0.19937124  0.75538093    -1.13600
O37         O  0.91138685  0.26881647  0.78660010    -0.72800
C38         C  0.88328033  0.29688253  0.79074983     0.97900
C39         C  0.83467783  0.18605402  0.69425516     0.94300
Al40       Al  0.84515896  0.14267675  0.75594383     1.55600
O41         O  0.89628298  0.28767671  0.72797208    -0.77400
C42         C  0.88335264  0.14281941  0.81520286     0.98500
C43         C  0.78453203  0.21218068  0.76313166     0.93300
O44         O  0.80097767  0.24179953  0.74604002    -0.82800
O45         O  0.69053623  0.35437249  0.01106496    -0.82200
C46         C  0.53592375  0.34223031  0.02796322     0.97100
O47         O  0.56154776  0.32656999  0.04481689    -0.71300
O48         O  0.60090188  0.26837104  0.00952244    -0.74900
Al49       Al  0.61282638  0.31872092  0.03760237     1.49000
C50         C  0.62295223  0.25476317  0.98925190     0.92400
O51         O  0.61838440  0.36155311  0.94936174    -0.81100
O52         O  0.62676149  0.46667144  0.00724211    -0.74700
Al53       Al  0.65221124  0.35812420  0.98153482     1.90100
O54         O  0.57966376  0.41985902  0.96503241    -0.73800
O55         O  0.59076952  0.42864978  0.05335007    -0.73600
O56         O  0.54252794  0.37813679  0.01006478    -0.79300
O57         O  0.62504911  0.36351683  0.06723961    -0.77500
O58         O  0.61717252  0.36582187  0.00907150    -1.13600
O59         O  0.66326401  0.29876831  0.03911269    -0.72800
C60         C  0.69213205  0.32143859  0.03151027     0.97900
C61         C  0.59184037  0.39161534  0.94428201     0.94300
Al62       Al  0.58702031  0.41916742  0.00892155     1.55600
O63         O  0.64716496  0.28521157  0.97937693    -0.77400
C64         C  0.61255863  0.40671836  0.07236958     0.98500
C65         C  0.65630642  0.46672885  0.99223000     0.93300
O66         O  0.66521542  0.42834412  0.97740055    -0.82800
O67         O  0.58263698  0.35891179  0.25196631    -0.82200
C68         C  0.73638508  0.35376096  0.23667054     0.97100
O69         O  0.71305630  0.33988552  0.21721109    -0.71300
O70         O  0.67502528  0.27708631  0.24973594    -0.74900
Al71       Al  0.66093064  0.32911899  0.22301852     1.49000
C72         C  0.65250336  0.25836190  0.26800856     0.92400
O73         O  0.65787981  0.35897710  0.31193159    -0.81100
O74         O  0.63972699  0.47063611  0.25515870    -0.74700
Al75       Al  0.62191631  0.35886796  0.28081414     1.90100
O76         O  0.68771731  0.42686280  0.29798007    -0.73800
O77         O  0.68137469  0.43938129  0.21063661    -0.73600
O78         O  0.72787705  0.38878477  0.25433545    -0.79300
O79         O  0.64722276  0.37692045  0.19425541    -0.77500
O80         O  0.65513706  0.37214027  0.25281139    -1.13600
O81         O  0.60983399  0.30805823  0.22090233    -0.72800
C82         C  0.58096560  0.33100448  0.22925143     0.97900
C83         C  0.67950422  0.39471955  0.31807681     0.94300
Al84       Al  0.68239117  0.42735837  0.25431885     1.55600
O85         O  0.62767835  0.28573605  0.27976337    -0.77400
C86         C  0.66138559  0.41933480  0.19026379     0.98500
C87         C  0.61240805  0.46723847  0.27265493     0.93300
O88         O  0.60813741  0.42759101  0.28795268    -0.82800
O89         O  0.35881453  0.28501047  0.26612642    -0.82200
C90         C  0.43036163  0.09894977  0.24252582     0.97100
O91         O  0.44317231  0.13586901  0.25665207    -0.71300
O92         O  0.44843891  0.22408391  0.23236393    -0.74900
Al93       Al  0.42519129  0.20043778  0.26746556     1.49000
C94         C  0.44038567  0.26465683  0.21916745     0.92400
O95         O  0.36459905  0.21610777  0.19315898    -0.81100
O96         O  0.31110789  0.16953379  0.26495857    -0.74700
Al97       Al  0.36234160  0.24871990  0.23005485     1.90100
O98         O  0.33933752  0.14498653  0.20768158    -0.73800
O99         O  0.36796139  0.11999121  0.29118691    -0.73600
O100        O  0.39626032  0.09713673  0.23543383    -0.79300
O101        O  0.40905091  0.17647508  0.30457471    -0.77500
O102        O  0.38119136  0.19494327  0.24936187    -1.13600
O103        O  0.41533740  0.26738717  0.28240094    -0.72800
C104        C  0.38657180  0.29532168  0.28258750     0.97900
C105        C  0.34807383  0.17594712  0.18684789     0.94300
Al106      Al  0.35568139  0.13763767  0.24977689     1.55600
O107        O  0.40780259  0.28150149  0.22008383    -0.77400
C108        C  0.38888219  0.13964441  0.31089324     0.98500
C109        C  0.29459254  0.20609101  0.25220999     0.93300
O110        O  0.31149684  0.23294805  0.23372876    -0.82800
O111        O  0.41628085  0.28398488  0.48410503    -0.82200
C112        C  0.35187839  0.09206500  0.50386678     0.97100
O113        O  0.34014708  0.12754022  0.48729847    -0.71300
O114        O  0.33027567  0.21078810  0.51664269    -0.74900
Al115      Al  0.35515640  0.19576631  0.48094000     1.49000
C116        C  0.33618634  0.25004862  0.53142916     0.92400
O117        O  0.41512002  0.21050253  0.55582320    -0.81100
O118        O  0.46948428  0.16680944  0.48485607    -0.74700
Al119      Al  0.41514606  0.24449880  0.51944402     1.90100
O120        O  0.44156945  0.13993865  0.54218478    -0.73800
O121        O  0.41237819  0.11798748  0.45756483    -0.73600
O122        O  0.38457986  0.09324601  0.51460720    -0.79300
O123        O  0.37538949  0.18060233  0.44392877    -0.77500
O124        O  0.39865821  0.19100373  0.49987508    -1.13600
O125        O  0.35974997  0.26623521  0.46946999    -0.72800
C126        C  0.38746949  0.29546677  0.46921490     0.97900
C127        C  0.43212260  0.17072425  0.56267978     0.94300
Al128      Al  0.42504895  0.13406421  0.49976189     1.55600
O129        O  0.36750908  0.27075884  0.53057528    -0.77400
C130        C  0.39335265  0.14162082  0.43748723     0.98500
C131        C  0.48474070  0.20468784  0.49664582     0.93300
O132        O  0.46669141  0.23220413  0.51411002    -0.82800
O133        O  0.07345794  0.37204723  0.75214224    -0.82200
C134        C  0.22486942  0.33975022  0.72753410     0.97100
O135        O  0.19751738  0.32726234  0.71144423    -0.71300
O136        O  0.15433751  0.27207053  0.74446639    -0.74900
Al137      Al  0.14529922  0.32760492  0.71877255     1.49000
C138        C  0.13271768  0.25905506  0.76511499     0.92400
O139        O  0.15277497  0.35487552  0.80719842    -0.81100
O140        O  0.14077218  0.47085958  0.75196048    -0.74700
Al141      Al  0.11457135  0.36350407  0.77849063     1.90100
O142        O  0.18717932  0.41839123  0.79258942    -0.73800
O143        O  0.17612633  0.43372707  0.70521080    -0.73600
O144        O  0.22096320  0.37526083  0.74601266    -0.79300
O145        O  0.13534166  0.37787775  0.69060314    -0.77500
O146        O  0.14655371  0.37070801  0.74876998    -1.13600
O147        O  0.09282239  0.31849317  0.71885274    -0.72800
C148        C  0.06699178  0.34475460  0.72982167     0.97900
C149        C  0.17733442  0.38705823  0.81277009     0.94300
Al150      Al  0.17905504  0.42069028  0.74891550     1.55600
O151        O  0.11167540  0.29109353  0.77715025    -0.77400
C152        C  0.15243083  0.41800510  0.68607252     0.98500
C153        C  0.11537254  0.47192008  0.77132591     0.93300
O154        O  0.10938220  0.43345565  0.78717381    -0.82800
O155        O  0.19431985  0.35731194  0.50828634    -0.82200
C156        C  0.03961442  0.34718177  0.52080896     0.97100
O157        O  0.06357862  0.33270000  0.53973581    -0.71300
O158        O  0.10420089  0.27326278  0.50583648    -0.74900
Al159      Al  0.11568936  0.32368098  0.53393719     1.49000
C160        C  0.12685358  0.25906273  0.48605265     0.92400
O161        O  0.12324333  0.36202882  0.44592761    -0.81100
O162        O  0.13121868  0.46996155  0.50300995    -0.74700
Al163      Al  0.15664798  0.36041414  0.47824372     1.90100
O164        O  0.08668822  0.42397050  0.45976274    -0.73800
O165        O  0.09252171  0.43293682  0.54739823    -0.73600
O166        O  0.04755832  0.38212918  0.50273753    -0.79300
O167        O  0.12794360  0.37000665  0.56331982    -0.77500
O168        O  0.12126775  0.36953999  0.50502656    -1.13600
O169        O  0.16608967  0.30262147  0.53647142    -0.72800
C170        C  0.19535969  0.32438374  0.52882137     0.97900
C171        C  0.09843561  0.39404147  0.43983614     0.94300
Al172      Al  0.09146156  0.42307794  0.50344972     1.55600
O173        O  0.15174019  0.28852348  0.47677007    -0.77400
C174        C  0.11473636  0.41336652  0.56689796     0.98500
C175        C  0.16000805  0.46936440  0.48712971     0.93300
O176        O  0.16909636  0.42998604  0.47340193    -0.82800
O177        O  0.57322478  0.86249658  0.75081345    -0.82200
C178        C  0.72752877  0.83656725  0.73786234     0.97100
O179        O  0.70264304  0.81799996  0.72133199    -0.71300
O180        O  0.65812991  0.76722811  0.75592019    -0.74900
Al181      Al  0.64974804  0.81648334  0.72592807     1.49000
C182        C  0.63384737  0.75640992  0.77494424     0.92400
O183        O  0.64637581  0.86109794  0.81151900    -0.81100
O184        O  0.63736730  0.96619049  0.75029015    -0.74700
Al185      Al  0.61126169  0.86178308  0.78031713     1.90100
O186        O  0.68261469  0.92140623  0.79488397    -0.73800
O187        O  0.67563018  0.92389656  0.70763570    -0.73600
O188        O  0.72043255  0.87547443  0.75278711    -0.79300
O189        O  0.64080938  0.86020027  0.69423574    -0.77500
O190        O  0.64624526  0.86555370  0.75262117    -1.13600
O191        O  0.59753924  0.80334366  0.72343513    -0.72800
C192        C  0.56999386  0.83052775  0.73031466     0.97900
C193        C  0.67144289  0.89311851  0.81604512     0.94300
Al194      Al  0.67686980  0.91761877  0.75142607     1.55600
O195        O  0.61078894  0.78934293  0.78337542    -0.77400
C196        C  0.65465515  0.90222640  0.68865814     0.98500
C197        C  0.60983379  0.96933280  0.76741312     0.93300
O198        O  0.60234775  0.93268637  0.78437375    -0.82800
O199        O  0.70073861  0.85068377  0.51773354    -0.82200
C200        C  0.54268614  0.83623331  0.51747061     0.97100
O201        O  0.56604624  0.81655226  0.53518116    -0.71300
O202        O  0.61309619  0.76427841  0.50311223    -0.74900
Al203      Al  0.61901492  0.81154248  0.53366854     1.49000
C204        C  0.63918395  0.75167173  0.48594301     0.92400
O205        O  0.63957923  0.85921277  0.44838863    -0.81100
O206        O  0.63495103  0.96253870  0.50619898    -0.74700
Al207      Al  0.66765299  0.85514180  0.48397326     1.90100
O208        O  0.59576514  0.91344317  0.46040963    -0.73800
O209        O  0.59460194  0.92145144  0.54817931    -0.73600
O210        O  0.55240310  0.87293714  0.50140371    -0.79300
O211        O  0.62513058  0.85452407  0.56528549    -0.77500
O212        O  0.62764002  0.86055505  0.50710418    -1.13600
O213        O  0.66964218  0.79237519  0.54069107    -0.72800
C214        C  0.69961319  0.81541549  0.53680443     0.97900
C215        C  0.61243430  0.88690693  0.44096223     0.94300
Al216      Al  0.59678387  0.91318252  0.50431098     1.55600
O217        O  0.66482191  0.78250559  0.47991393    -0.77400
C218        C  0.61267651  0.89816761  0.56894876     0.98500
C219        C  0.66634885  0.96422971  0.49415281     0.93300
O220        O  0.67955777  0.92538133  0.48215238    -0.82800
O221        O  0.42380827  0.78100105  0.98757961    -0.82200
C222        C  0.35467821  0.59308100  0.00882126     0.97100
O223        O  0.34148008  0.63007079  0.99419630    -0.71300
O224        O  0.33628308  0.71389932  0.02300481    -0.74900
Al225      Al  0.35822514  0.69719254  0.98628027     1.49000
C226        C  0.34310206  0.75478300  0.03557148     0.92400
O227        O  0.42033580  0.70711135  0.05913825    -0.81100
O228        O  0.47185983  0.66431467  0.98557162    -0.74700
Al229      Al  0.42152392  0.74207861  0.02298371     1.90100
O230        O  0.44583158  0.63652788  0.04364115    -0.73800
O231        O  0.41326630  0.61830605  0.95986762    -0.73600
O232        O  0.38841235  0.59223164  0.01680125    -0.79300
O233        O  0.37445570  0.68003981  0.94841935    -0.77500
O234        O  0.40265422  0.69000674  0.00328252    -1.13600
O235        O  0.36607902  0.76728857  0.97374033    -0.72800
C236        C  0.39537608  0.79396252  0.97256237     0.97900
C237        C  0.43627368  0.66572846  0.06492208     0.94300
Al238      Al  0.42799221  0.63247595  0.00154184     1.55600
O239        O  0.37513816  0.77342686  0.03394172    -0.77400
C240        C  0.39256489  0.64182823  0.94095236     0.98500
C241        C  0.48885242  0.69971079  0.99833515     0.93300
O242        O  0.47261667  0.72564897  0.01773276    -0.82800
O243        O  0.35352574  0.78609862  0.76910064    -0.82200
C244        C  0.41652217  0.59440132  0.74564034     0.97100
O245        O  0.43129802  0.63048660  0.75932892    -0.71300
O246        O  0.43759302  0.71510436  0.73074361    -0.74900
Al247      Al  0.41672431  0.69816618  0.76792062     1.49000
C248        C  0.43095910  0.75648134  0.71801247     0.92400
O249        O  0.35176702  0.71646845  0.69699510    -0.81100
O250        O  0.30178530  0.67264476  0.77068589    -0.74700
Al251      Al  0.35314719  0.74924372  0.73334971     1.90100
O252        O  0.32607512  0.64603800  0.71235784    -0.73800
O253        O  0.36002505  0.62262004  0.79555858    -0.73600
O254        O  0.38261334  0.59617530  0.73826478    -0.79300
O255        O  0.40155216  0.68045262  0.80613589    -0.77500
O256        O  0.37140479  0.69481573  0.75208189    -1.13600
O257        O  0.41156948  0.76799634  0.78085742    -0.72800
C258        C  0.38306031  0.79637492  0.78314859     0.97900
C259        C  0.33500527  0.67645212  0.69122447     0.94300
Al260      Al  0.34462800  0.63895263  0.75411956     1.55600
O261        O  0.39973696  0.77753007  0.72106912    -0.77400
C262        C  0.38224235  0.64366334  0.81401262     0.98500
C263        C  0.28516276  0.70940968  0.75830212     0.93300
O264        O  0.30189271  0.73655976  0.73974291    -0.82800
O265        O  0.19729419  0.86131061  0.99741881    -0.82200
C266        C  0.04387694  0.83452457  0.01828369     0.97100
O267        O  0.07032496  0.81680940  0.03400543    -0.71300
O268        O  0.11347196  0.76609487  0.99886355    -0.74900
Al269      Al  0.12298214  0.81614595  0.02740742     1.49000
C270        C  0.13499557  0.75511678  0.97781994     0.92400
O271        O  0.11956366  0.85951160  0.94049727    -0.81100
O272        O  0.13137465  0.96505564  0.00067002    -0.74700
Al273      Al  0.15673811  0.86045237  0.97017332     1.90100
O274        O  0.08409153  0.92017066  0.95784834    -0.73800
O275        O  0.09498634  0.92253815  0.04504482    -0.73600
O276        O  0.04930937  0.87271568  0.00180227    -0.79300
O277        O  0.13276692  0.86079474  0.05828819    -0.77500
O278        O  0.12376949  0.86446934  0.99959754    -1.13600
O279        O  0.17558608  0.80405833  0.02773052    -0.72800
C280        C  0.20241181  0.83039209  0.01856617     0.97900
C281        C  0.09363996  0.89104430  0.93674319     0.94300
Al282      Al  0.09220123  0.91606904  0.00123949     1.55600
O283        O  0.15717631  0.78765860  0.96768915    -0.77400
C284        C  0.11759492  0.90224544  0.06377162     0.98500
C285        C  0.15816215  0.96804870  0.98267582     0.93300
O286        O  0.16454362  0.93170861  0.96535203    -0.82800
O287        O  0.07462042  0.85883969  0.24702947    -0.82200
C288        C  0.22900819  0.84230646  0.23081726     0.97100
O289        O  0.20404693  0.82638920  0.21347679    -0.71300
O290        O  0.16412474  0.77015816  0.24944198    -0.74900
Al291      Al  0.15196826  0.81979294  0.22061671     1.49000
C292        C  0.14168374  0.75726106  0.26958943     0.92400
O293        O  0.14860237  0.86229612  0.30775041    -0.81100
O294        O  0.13865171  0.96723859  0.24716250    -0.74700
Al295      Al  0.11359445  0.86075854  0.27624596     1.90100
O296        O  0.18369821  0.92372349  0.29116706    -0.73800
O297        O  0.17588491  0.92667582  0.20331806    -0.73600
O298        O  0.22159450  0.87793699  0.24832390    -0.79300
O299        O  0.13902796  0.86469975  0.19034417    -0.77500
O300        O  0.14797405  0.86712511  0.24834744    -1.13600
O301        O  0.10115427  0.80139360  0.21995358    -0.72800
C302        C  0.07258065  0.82589301  0.22689451     0.97900
C303        C  0.17254190  0.89561914  0.31244941     0.94300
Al304      Al  0.17796968  0.91971159  0.24748902     1.55600
O305        O  0.11731050  0.78798430  0.27897114    -0.77400
C306        C  0.15310777  0.90665043  0.18484161     0.98500
C307        C  0.11116447  0.96954024  0.26426702     0.93300
O308        O  0.10249834  0.93154039  0.27988476    -0.82800
O309        O  0.85555375  0.78266152  0.27219908    -0.82200
C310        C  0.92399900  0.59326683  0.24963695     0.97100
O311        O  0.93696780  0.62903884  0.26468852    -0.71300
O312        O  0.94171119  0.71448507  0.23637255    -0.74900
Al313      Al  0.91992892  0.69562951  0.27291389     1.49000
C314        C  0.93343619  0.75407477  0.22208053     0.92400
O315        O  0.85475286  0.70990520  0.20027518    -0.81100
O316        O  0.80649117  0.66241806  0.27335214    -0.74700
Al317      Al  0.85572552  0.74349201  0.23676971     1.90100
O318        O  0.83249574  0.63763647  0.21557957    -0.73800
O319        O  0.86472067  0.61637549  0.29865163    -0.73600
O320        O  0.89029275  0.59296530  0.24179780    -0.79300
O321        O  0.90355503  0.67666107  0.31081117    -0.77500
O322        O  0.87526145  0.69003814  0.25591938    -1.13600
O323        O  0.91293058  0.76450091  0.28543873    -0.72800
C324        C  0.88488229  0.79367935  0.28640352     0.97900
C325        C  0.84075355  0.66784430  0.19436283     0.94300
Al326      Al  0.85044601  0.63219734  0.25727784     1.55600
O327        O  0.90135245  0.77272136  0.22389798    -0.77400
C328        C  0.88456055  0.63909007  0.31794633     0.98500
C329        C  0.78949161  0.69978198  0.26220147     0.93300
O330        O  0.80527322  0.72854091  0.24394922    -0.82800
O331        O  0.91474153  0.77809463  0.49402753    -0.82200
C332        C  0.85628197  0.58224963  0.51234177     0.97100
O333        O  0.84241102  0.61820755  0.49731152    -0.71300
O334        O  0.83363327  0.69809242  0.52965070    -0.74900
Al335      Al  0.85539427  0.68740613  0.49212676     1.49000
C336        C  0.83921281  0.73725866  0.54457634     0.92400
O337        O  0.92282941  0.69920844  0.56397901    -0.81100
O338        O  0.96939470  0.66164000  0.48820305    -0.74700
Al339      Al  0.91789838  0.73568125  0.52835442     1.90100
O340        O  0.94818266  0.63016565  0.54619645    -0.73800
O341        O  0.91128593  0.61368163  0.46358316    -0.73600
O342        O  0.88968435  0.58395335  0.52130659    -0.79300
O343        O  0.87254848  0.67624702  0.45351903    -0.77500
O344        O  0.90052040  0.68294844  0.50839878    -1.13600
O345        O  0.85733543  0.75895226  0.48271725    -0.72800
C346        C  0.88413018  0.78966166  0.48176112     0.97900
C347        C  0.94085690  0.65903145  0.56812940     0.94300
Al348      Al  0.92760613  0.62690317  0.50506249     1.55600
O349        O  0.87032192  0.75888408  0.54318749    -0.77400
C350        C  0.89068561  0.63845131  0.44512257     0.98500
C351        C  0.98515855  0.69940770  0.49946829     0.93300
O352        O  0.96894183  0.72541520  0.51890290    -0.82800
O353        O  0.84588967  0.01898867  0.50230106    -0.82200
C354        C  0.92051057  0.20520169  0.50497209     0.97100
O355        O  0.93248989  0.16446694  0.49437083    -0.71300
O356        O  0.93635634  0.08900815  0.53138817    -0.74900
Al357      Al  0.91395687  0.09725649  0.49326538     1.49000
C358        C  0.92902856  0.05140274  0.54726828     0.92400
O359        O  0.85438160  0.10841669  0.56554376    -0.81100
O360        O  0.80149331  0.13343250  0.48801913    -0.74700
Al361      Al  0.85071103  0.06535089  0.53348704     1.90100
O362        O  0.82852957  0.17476043  0.54332048    -0.73800
O363        O  0.85992773  0.17068503  0.45816106    -0.73600
O364        O  0.88696224  0.20958016  0.51263548    -0.79300
O365        O  0.89716895  0.10547900  0.45450601    -0.77500
O366        O  0.87024309  0.11078094  0.50894615    -1.13600
O367        O  0.90366984  0.02513167  0.48777325    -0.72800
C368        C  0.87334224  0.00046452  0.48899057     0.97900
C369        C  0.83748868  0.14987877  0.56717742     0.94300
Al370      Al  0.84601475  0.16789187  0.50112673     1.55600
O371        O  0.89644669  0.03433677  0.54732789    -0.77400
C372        C  0.87850968  0.13997784  0.44223157     0.98500
C373        C  0.78420733  0.10205179  0.50395411     0.93300
O374        O  0.79991159  0.08304404  0.52677159    -0.82800
O375        O  0.92713937  0.01535127  0.26504526    -0.82200
C376        C  0.85309191  0.20347927  0.24714245     0.97100
O377        O  0.84172611  0.16512117  0.26099955    -0.71300
O378        O  0.83726368  0.08249366  0.22978516    -0.74900
Al379      Al  0.86004159  0.09790955  0.26678310     1.49000
C380        C  0.84502701  0.04264681  0.21618899     0.92400
O381        O  0.92118464  0.09153929  0.19416577    -0.81100
O382        O  0.97243259  0.13470941  0.26774967    -0.74700
Al383      Al  0.92339412  0.05568022  0.22996014     1.90100
O384        O  0.94421000  0.16300630  0.21046633    -0.73800
O385        O  0.91476794  0.17652761  0.29526551    -0.73600
O386        O  0.88615151  0.20508955  0.23810552    -0.79300
O387        O  0.87793245  0.11262177  0.30429137    -0.77500
O388        O  0.90371339  0.10688710  0.24996125    -1.13600
O389        O  0.86917655  0.02745104  0.27768282    -0.72800
C390        C  0.89880283  0.00087497  0.27891876     0.97900
C391        C  0.93680188  0.13277203  0.18903394     0.94300
Al392      Al  0.92748855  0.16525669  0.25260842     1.55600
O393        O  0.87740874  0.02424584  0.21798684    -0.77400
C394        C  0.89736140  0.14837137  0.31359314     0.98500
C395        C  0.98982968  0.09955245  0.25526755     0.93300
O396        O  0.97399410  0.07284692  0.23594918    -0.82800
O397        O  0.19562420  0.93718501  0.75273079    -0.82200
C398        C  0.04258611  0.96328524  0.72783908     0.97100
O399        O  0.06913792  0.97656930  0.71145813    -0.71300
O400        O  0.11085419  0.03236515  0.74586733    -0.74900
Al401      Al  0.12157083  0.97906979  0.71966759     1.49000
C402        C  0.13269738  0.04559451  0.76657872     0.92400
O403        O  0.11762128  0.94469303  0.80793148    -0.81100
O404        O  0.13082933  0.83366252  0.75152391    -0.74700
Al405      Al  0.15497522  0.94102674  0.77906755     1.90100
O406        O  0.08319219  0.88216046  0.79191938    -0.73800
O407        O  0.09422189  0.87219131  0.70485740    -0.73600
O408        O  0.04778988  0.92677839  0.74592647    -0.79300
O409        O  0.13320627  0.93094414  0.69125724    -0.77500
O410        O  0.12235339  0.93405915  0.74923261    -1.13600
O411        O  0.17364162  0.99192898  0.72031935    -0.72800
C412        C  0.20047194  0.96580885  0.73056391     0.97900
C413        C  0.09251859  0.91281087  0.81239500     0.94300
Al414      Al  0.09115536  0.88262540  0.74857612     1.55600
O415        O  0.15473674  0.01390452  0.77868476    -0.77400
C416        C  0.11774535  0.88974732  0.68640738     0.98500
C417        C  0.15741551  0.83273645  0.77038522     0.93300
O418        O  0.16320387  0.87070904  0.78642988    -0.82800
O419        O  0.06732489  0.93964785  0.50740470    -0.82200
C420        C  0.22391998  0.96296221  0.51722514     0.97100
O421        O  0.19971785  0.98221343  0.53397895    -0.71300
O422        O  0.15105383  0.03469757  0.50311080    -0.74900
Al423      Al  0.14609419  0.98296134  0.53180058     1.49000
C424        C  0.12564668  0.04711608  0.48482236     0.92400
O425        O  0.13573554  0.94542982  0.44473542    -0.81100
O426        O  0.13333084  0.83525007  0.50226572    -0.74700
Al427      Al  0.10335080  0.94226930  0.47713717     1.90100
O428        O  0.17549743  0.88608000  0.45839225    -0.73800
O429        O  0.17258531  0.87236869  0.54625039    -0.73600
O430        O  0.21552441  0.92495719  0.50202108    -0.79300
O431        O  0.14080394  0.93694641  0.56296470    -0.77500
O432        O  0.14071524  0.93610934  0.50375503    -1.13600
O433        O  0.09373693  0.99475131  0.53660791    -0.72800
C434        C  0.06535849  0.96980646  0.52889682     0.97900
C435        C  0.16235502  0.91653786  0.43857294     0.94300
Al436      Al  0.17189526  0.88395180  0.50238285     1.55600
O437        O  0.10226320  0.01505443  0.47606612    -0.77400
C438        C  0.15362525  0.89340861  0.56669719     0.98500
C439        C  0.10453997  0.83311339  0.48611642     0.93300
O440        O  0.09444539  0.87157532  0.47128951    -0.82800
O441        O  0.57602472  0.93588863  0.00981320    -0.82200
C442        C  0.73189001  0.95480445  0.02186297     0.97100
O443        O  0.70763635  0.97206073  0.03924873    -0.71300
O444        O  0.66192920  0.02786127  0.00726241    -0.74900
Al445      Al  0.65454934  0.97568113  0.03535416     1.49000
C446        C  0.63764963  0.04116616  0.98822422     0.92400
O447        O  0.64621258  0.93741921  0.94759731    -0.81100
O448        O  0.64146427  0.82850954  0.00579663    -0.74700
Al449      Al  0.61298885  0.93658691  0.97989406     1.90100
O450        O  0.68388839  0.87650836  0.96267050    -0.73800
O451        O  0.68142402  0.86621830  0.04949708    -0.73600
O452        O  0.72384221  0.91812760  0.00537698    -0.79300
O453        O  0.64690531  0.92885230  0.06539284    -0.77500
O454        O  0.64948102  0.92939320  0.00692680    -1.13600
O455        O  0.60249150  0.99075516  0.03913598    -0.72800
C456        C  0.57416086  0.96600143  0.03141343     0.97900
C457        C  0.67119731  0.90536172  0.94212334     0.94300
Al458      Al  0.68038887  0.87672809  0.00595375     1.55600
O459        O  0.61409794  0.00970297  0.97862283    -0.77400
C460        C  0.66100868  0.88606424  0.06933399     0.98500
C461        C  0.61247075  0.82718081  0.98970982     0.93300
O462        O  0.60273140  0.86581995  0.97479813    -0.82800
O463        O  0.70429873  0.93437755  0.24730486    -0.82200
C464        C  0.54987155  0.95382493  0.22990671     0.97100
O465        O  0.57441887  0.96448197  0.21092485    -0.71300
O466        O  0.61682907  0.02476385  0.24185701    -0.74900
Al467      Al  0.62706754  0.96995012  0.21701062     1.49000
C468        C  0.64068890  0.04201667  0.25972359     0.92400
O469        O  0.63077372  0.94202585  0.30681477    -0.81100
O470        O  0.63867086  0.82854420  0.25215808    -0.74700
Al471      Al  0.66557323  0.93808090  0.27561641     1.90100
O472        O  0.59605909  0.87794381  0.29372487    -0.73800
O473        O  0.59887952  0.86323095  0.20658810    -0.73600
O474        O  0.55696583  0.92012713  0.24925244    -0.79300
O475        O  0.63792125  0.91996198  0.19024385    -0.77500
O476        O  0.63078687  0.92790448  0.24784922    -1.13600
O477        O  0.67866188  0.98555704  0.21467232    -0.72800
C478        C  0.70700259  0.96260297  0.22467712     0.97900
C479        C  0.60733750  0.90880963  0.31336145     0.94300
Al480      Al  0.59974211  0.87645720  0.25023808     1.55600
O481        O  0.66343934  0.01220781  0.27309810    -0.77400
C482        C  0.62134571  0.87927001  0.18680349     0.98500
C483        C  0.66686044  0.82790489  0.26915660     0.93300
O484        O  0.67569366  0.86717228  0.28349587    -0.82800
O485        O  0.35579043  0.01039331  0.98534299    -0.82200
C486        C  0.41779152  0.20230841  0.00786714     0.97100
O487        O  0.43238881  0.16639734  0.99386539    -0.71300
O488        O  0.44042516  0.08215187  0.02275802    -0.74900
Al489      Al  0.41803394  0.09864992  0.98555963     1.49000
C490        C  0.43424044  0.04174532  0.03645059     0.92400
O491        O  0.35427789  0.08301590  0.05679569    -0.81100
O492        O  0.30302521  0.12574213  0.98214382    -0.74700
Al493      Al  0.35557441  0.04892047  0.02063475     1.90100
O494        O  0.32803690  0.15326569  0.04025347    -0.73800
O495        O  0.36048713  0.17469595  0.95755043    -0.73600
O496        O  0.38403885  0.20099839  0.01497825    -0.79300
O497        O  0.40154546  0.11583212  0.94705261    -0.77500
O498        O  0.37308073  0.10269276  0.00141227    -1.13600
O499        O  0.41311069  0.02869969  0.97323329    -0.72800
C500        C  0.38508364  0.99988639  0.97138994     0.97900
C501        C  0.33765452  0.12376555  0.06182110     0.94300
Al502      Al  0.34597762  0.15898302  0.99885401     1.55600
O503        O  0.40296316  0.02094878  0.03376498    -0.77400
C504        C  0.38195855  0.15296693  0.93907737     0.98500
C505        C  0.28684448  0.08890496  0.99418356     0.93300
O506        O  0.30387816  0.06191759  0.01325856    -0.82800
O507        O  0.41818738  0.01389001  0.76788556    -0.82200
C508        C  0.34828306  0.20182147  0.74275069     0.97100
O509        O  0.33489454  0.16437456  0.75625253    -0.71300
O510        O  0.33118409  0.07939553  0.72847115    -0.74900
Al511      Al  0.35202915  0.09776037  0.76570473     1.49000
C512        C  0.33920453  0.03836419  0.71643946     0.92400
O513        O  0.41668141  0.08400664  0.69486875    -0.81100
O514        O  0.46624048  0.13031021  0.76873037    -0.74700
Al515      Al  0.41671850  0.05100790  0.73178663     1.90100
O516        O  0.43964071  0.15616762  0.71037277    -0.73800
O517        O  0.40742343  0.17589055  0.79335894    -0.73600
O518        O  0.38224175  0.20267410  0.73612903    -0.79300
O519        O  0.36704422  0.11671717  0.80386939    -0.77500
O520        O  0.39693462  0.10414048  0.75007819    -1.13600
O521        O  0.36000929  0.02797584  0.77957488    -0.72800
C522        C  0.38953831  0.00131327  0.78202675     0.97900
C523        C  0.43234941  0.12511508  0.68932402     0.94300
Al524      Al  0.42194418  0.16155871  0.75202380     1.55600
O525        O  0.37127202  0.01978492  0.71967498    -0.77400
C526        C  0.38615351  0.15360047  0.81180337     0.98500
C527        C  0.48354045  0.09437324  0.75684118     0.93300
O528        O  0.46735332  0.06676536  0.73824981    -0.82800
O529        O  0.07587265  0.43939645  0.00545824    -0.82200
C530        C  0.23188427  0.45866036  0.01820277     0.97100
O531        O  0.20674489  0.48169030  0.03189531    -0.71300
O532        O  0.16053004  0.53241903  0.99779272    -0.74900
Al533      Al  0.15416390  0.48388338  0.02840089     1.49000
C534        C  0.13548778  0.54376473  0.97887467     0.92400
O535        O  0.14514663  0.43734828  0.94278122    -0.81100
O536        O  0.13956805  0.33309379  0.00336353    -0.74700
Al537      Al  0.11203637  0.43861375  0.97495274     1.90100
O538        O  0.18481518  0.37956255  0.95973746    -0.73800
O539        O  0.17671673  0.37257879  0.04749705    -0.73600
O540        O  0.22401436  0.41930473  0.00404015    -0.79300
O541        O  0.14763700  0.44152556  0.06096001    -0.77500
O542        O  0.14887888  0.43406947  0.00217365    -1.13600
O543        O  0.10232415  0.49792519  0.03209690    -0.72800
C544        C  0.07441173  0.47126298  0.02625157     0.97900
C545        C  0.17221386  0.40784952  0.93857487     0.94300
Al546      Al  0.17903133  0.38055717  0.00348990     1.55600
O547        O  0.11177992  0.51134542  0.97122507    -0.77400
C548        C  0.15814990  0.39737762  0.06662927     0.98500
C549        C  0.11061624  0.33123758  0.98739056     0.93300
O550        O  0.10181887  0.36818753  0.97096445    -0.82800
O551        O  0.20127910  0.44399085  0.24274634    -0.82200
C552        C  0.04546465  0.45464317  0.23334126     0.97100
O553        O  0.06833246  0.47005536  0.21428968    -0.71300
O554        O  0.11133241  0.52991896  0.24495813    -0.74900
Al555      Al  0.12068290  0.47766964  0.21779806     1.49000
C556        C  0.13464352  0.54489562  0.26409810     0.92400
O557        O  0.13327202  0.44263632  0.30631243    -0.81100
O558        O  0.14033049  0.33257113  0.25018181    -0.74700
Al559      Al  0.16518786  0.44297713  0.27336972     1.90100
O560        O  0.09716332  0.37992568  0.29395769    -0.73800
O561        O  0.09736521  0.36758736  0.20658459    -0.73600
O562        O  0.05503364  0.41933183  0.25089679    -0.79300
O563        O  0.12994263  0.43039985  0.18843567    -0.77500
O564        O  0.12843129  0.43284808  0.24722650    -1.13600
O565        O  0.17094445  0.49656241  0.21328780    -0.72800
C566        C  0.20056229  0.47405835  0.22073763     0.97900
C567        C  0.10891269  0.41113504  0.31328720     0.94300
Al568      Al  0.09955766  0.37905804  0.25011275     1.55600
O569        O  0.16025172  0.51554583  0.27356642    -0.77400
C570        C  0.11538223  0.38806725  0.18532729     0.98500
C571        C  0.16978285  0.33391253  0.26579843     0.93300
O572        O  0.17842266  0.37367134  0.27926328    -0.82800
O573        O  0.84524261  0.50904952  0.99198355    -0.82200
C574        C  0.92170385  0.69413304  0.00400273     0.97100
O575        O  0.93114158  0.65658367  0.98851420    -0.71300
O576        O  0.93888090  0.57223165  0.01835620    -0.74900
Al577      Al  0.91151930  0.58947581  0.98360619     1.49000
C578        C  0.93240716  0.53410086  0.03423929     0.92400
O579        O  0.85858596  0.58556975  0.06146382    -0.81100
O580        O  0.80018471  0.62735918  0.98861166    -0.74700
Al581      Al  0.85290649  0.54918549  0.02607003     1.90100
O582        O  0.83198351  0.65544653  0.04485274    -0.73800
O583        O  0.85836197  0.67332292  0.96011785    -0.73600
O584        O  0.88961586  0.69596453  0.01542967    -0.79300
O585        O  0.88870324  0.60539429  0.94732662    -0.77500
O586        O  0.87047379  0.59951013  0.00400321    -1.13600
O587        O  0.90059076  0.52014142  0.97339865    -0.72800
C588        C  0.87049416  0.49544971  0.97448951     0.97900
C589        C  0.84280316  0.62707276  0.06658480     0.94300
Al590      Al  0.84659852  0.65831208  0.00235366     1.55600
O591        O  0.89993075  0.51679254  0.03553983    -0.77400
C592        C  0.87500846  0.64742943  0.94045325     0.98500
C593        C  0.78418273  0.59231702  0.00290944     0.93300
O594        O  0.80211289  0.56776254  0.02264534    -0.82800
O595        O  0.91934163  0.50989770  0.77596771    -0.82200
C596        C  0.85243162  0.69976019  0.75114254     0.97100
O597        O  0.84316035  0.66697324  0.77014110    -0.71300
O598        O  0.83172662  0.58184656  0.74377546    -0.74900
Al599      Al  0.85888057  0.59945481  0.77787732     1.49000
C600        C  0.83673320  0.54216476  0.72916152     0.92400
O601        O  0.91634393  0.57703671  0.70127480    -0.81100
O602        O  0.97096316  0.62956735  0.77054736    -0.74700
Al603      Al  0.91675443  0.54670501  0.73936155     1.90100
O604        O  0.94158654  0.64881144  0.71336050    -0.73800
O605        O  0.91482901  0.68083890  0.79577894    -0.73600
O606        O  0.88364829  0.69667393  0.73844420    -0.79300
O607        O  0.88219854  0.61745433  0.81337407    -0.77500
O608        O  0.90071306  0.60208963  0.75732920    -1.13600
O609        O  0.86407172  0.53053039  0.79119747    -0.72800
C610        C  0.89130555  0.50035627  0.79164846     0.97900
C611        C  0.93339154  0.61607524  0.69372672     0.94300
Al612      Al  0.92581289  0.65938408  0.75470687     1.55600
O613        O  0.86823591  0.52086441  0.72911332    -0.77400
C614        C  0.89946559  0.65773425  0.81741726     0.98500
C615        C  0.98625007  0.59020480  0.76065930     0.93300
O616        O  0.96816880  0.55956955  0.74497203    -0.82800
O617        O  0.69039956  0.44612815  0.75342961    -0.82200
C618        C  0.53627057  0.45400639  0.73110693     0.97100
O619        O  0.56179481  0.46831299  0.71416360    -0.71300
O620        O  0.59924321  0.53010440  0.74862251    -0.74900
Al621      Al  0.61314436  0.47775084  0.72246747     1.49000
C622        C  0.62004380  0.54512226  0.76963175     0.92400
O623        O  0.61589377  0.44335148  0.81180967    -0.81100
O624        O  0.62902227  0.33313013  0.75696308    -0.74700
Al625      Al  0.65093680  0.44414722  0.78116792     1.90100
O626        O  0.58104851  0.38071089  0.79712123    -0.73800
O627        O  0.59187277  0.36771789  0.70953340    -0.73600
O628        O  0.54337592  0.42011891  0.75045643    -0.79300
O629        O  0.62748515  0.42989606  0.69458811    -0.77500
O630        O  0.61738072  0.43343938  0.75255975    -1.13600
O631        O  0.66351228  0.49877998  0.72224883    -0.72800
C632        C  0.69247743  0.47765336  0.73227703     0.97900
C633        C  0.59152912  0.41121314  0.81737414     0.94300
Al634      Al  0.58831004  0.37965494  0.75339204     1.55600
O635        O  0.64463437  0.51601662  0.78096756    -0.77400
C636        C  0.61425696  0.38688621  0.69056105     1.01700
C637        C  0.65707350  0.33500102  0.77421995     0.93300
O638        O  0.66433528  0.37513997  0.78780130    -0.82800
O639        O  0.57679283  0.43322458  0.50438651    -0.82200
C640        C  0.73068146  0.45190162  0.52865087     0.97100
O641        O  0.70434889  0.46990183  0.54359295    -0.71300
O642        O  0.66123116  0.52647180  0.51005482    -0.74900
Al643      Al  0.65183560  0.47267335  0.53709630     1.49000
C644        C  0.63938473  0.53961161  0.48909858     0.92400
O645        O  0.65519069  0.43884698  0.44926639    -0.81100
O646        O  0.63951024  0.32691543  0.50570949    -0.74700
Al647      Al  0.61749308  0.43580186  0.47802942     1.90100
O648        O  0.68859964  0.37441374  0.46552216    -0.73800
O649        O  0.67708383  0.36227029  0.55267898    -0.73600
O650        O  0.72458910  0.41454170  0.51190981    -0.79300
O651        O  0.64213386  0.42532674  0.56704960    -0.77500
O652        O  0.65011020  0.42723892  0.50806247    -1.13600
O653        O  0.59947827  0.48532197  0.53741669    -0.72800
C654        C  0.57221230  0.46158064  0.52652428     0.97900
C655        C  0.67937315  0.40529478  0.44468290     0.94300
Al656      Al  0.68026874  0.37379673  0.50893754     1.55600
O657        O  0.61749090  0.50810115  0.47772292    -0.77400
C658        C  0.65620353  0.38277262  0.57201111     0.98500
C659        C  0.61332877  0.32753925  0.48642647     0.93300
O660        O  0.60852449  0.36617198  0.47034153    -0.82800
O661        O  0.34869823  0.51396855  0.48835006    -0.82200
C662        C  0.41730419  0.70337204  0.50756924     0.97100
O663        O  0.42834393  0.66766563  0.49137960    -0.71300
O664        O  0.43794589  0.58225590  0.52003183    -0.74900
Al665      Al  0.41200053  0.60029086  0.48448978     1.49000
C666        C  0.43163568  0.54204857  0.53400901     0.92400
O667        O  0.35432815  0.58585347  0.56003049    -0.81100
O668        O  0.29930350  0.63266681  0.48784552    -0.74700
Al669      Al  0.35220519  0.55256233  0.52348754     1.90100
O670        O  0.32789572  0.65656727  0.54503512    -0.73800
O671        O  0.35573504  0.68163327  0.46204687    -0.73600
O672        O  0.38509689  0.70248629  0.51865891    -0.79300
O673        O  0.39113278  0.61857016  0.44763036    -0.77500
O674        O  0.36928826  0.60589156  0.50360799    -1.13600
O675        O  0.40475412  0.53054224  0.47244630    -0.72800
C676        C  0.37630087  0.50244221  0.47255158     0.97900
C677        C  0.33739873  0.62592640  0.56597398     0.94300
Al678      Al  0.34390681  0.66364686  0.50342061     1.55600
O679        O  0.39957165  0.52330010  0.53372644    -0.77400
C680        C  0.37304228  0.65809713  0.44176118     0.98500
C681        C  0.28333073  0.59579291  0.50011645     0.93300
O682        O  0.30075442  0.56791068  0.51847361    -0.82800
O683        O  0.41570732  0.51181367  0.26870110    -0.82200
C684        C  0.35110192  0.70474979  0.25045424     0.97100
O685        O  0.33931419  0.66942104  0.26666112    -0.71300
O686        O  0.32962643  0.58825073  0.23602223    -0.74900
Al687      Al  0.35441365  0.60095402  0.27228846     1.49000
C688        C  0.33617881  0.55093113  0.21977247     0.92400
O689        O  0.41488374  0.58895525  0.19791640    -0.81100
O690        O  0.46773156  0.62808027  0.27167390    -0.74700
Al691      Al  0.41454531  0.55307614  0.23392741     1.90100
O692        O  0.44136916  0.65769723  0.21429916    -0.73800
O693        O  0.41022031  0.67768461  0.29750588    -0.73600
O694        O  0.38365580  0.70311212  0.24015783    -0.79300
O695        O  0.37485686  0.61390144  0.30975845    -0.77500
O696        O  0.39778408  0.60575872  0.25415144    -1.13600
O697        O  0.35929619  0.53049951  0.28269124    -0.72800
C698        C  0.38690162  0.50073523  0.28313494     0.97900
C699        C  0.43186779  0.62920087  0.19272842     0.94300
Al700      Al  0.42388407  0.66215633  0.25584901     1.55600
O701        O  0.36712762  0.52847723  0.22138189    -0.77400
C702        C  0.39165184  0.65332436  0.31691933     0.98500
C703        C  0.48319281  0.59087010  0.25927765     0.93300
O704        O  0.46560477  0.56466026  0.24072650    -0.82800
C705        C  0.40815680  0.68902068  0.39843524    -0.06200
C706        C  0.37349693  0.67561873  0.41037678    -0.00300
C707        C  0.34351023  0.66533639  0.39093534    -0.08800
C708        C  0.35020035  0.66335835  0.36002710    -0.06200
C709        C  0.38597512  0.67081695  0.34812856    -0.00300
C710        C  0.41496604  0.68695163  0.36732976    -0.08700
C711        C  0.45339770  0.69788901  0.35545561     0.61600
H712        H  0.43074511  0.69681258  0.41393709     0.12300
H713        H  0.32797218  0.65187608  0.34508054     0.12300
C714        C  0.30568576  0.65166090  0.40315917     0.61900
F715        F  0.47759153  0.71263614  0.37805124    -0.23300
F716        F  0.45120958  0.73629479  0.33437555    -0.20600
F717        F  0.46792110  0.65524967  0.34229943    -0.20300
F718        F  0.29297185  0.68970636  0.42143721    -0.20400
F719        F  0.30864832  0.60756790  0.41968592    -0.20700
F720        F  0.27964669  0.64470547  0.38048180    -0.23400
C721        C  0.46731359  0.46432629  0.53418248    -0.06200
C722        C  0.46335957  0.51277940  0.54565795    -0.00300
C723        C  0.49407923  0.53630869  0.55925626    -0.08800
C724        C  0.52938201  0.51524705  0.55528278    -0.06200
C725        C  0.53437639  0.47159425  0.53811253    -0.00300
C726        C  0.50262083  0.44289772  0.53009271    -0.08700
C727        C  0.50495975  0.39263487  0.51451801     0.61600
H728        H  0.44308982  0.44626720  0.52454143     0.12300
H729        H  0.55332043  0.53583592  0.56335221     0.12300
C730        C  0.49077141  0.58626251  0.57493565     0.61900
F731        F  0.47158425  0.36721591  0.51623346    -0.23300
F732        F  0.53179994  0.36240067  0.52784820    -0.20600
F733        F  0.51339638  0.40020687  0.48466935    -0.20300
F734        F  0.45506791  0.59385305  0.58532059    -0.20400
F735        F  0.49982209  0.62454841  0.55519786    -0.20700
F736        F  0.51484421  0.58756870  0.59936409    -0.23400
C737        C  0.59886064  0.35509405  0.63986331    -0.06200
C738        C  0.62568170  0.36141919  0.66248025    -0.00300
C739        C  0.66393093  0.35843507  0.65460341    -0.08800
C740        C  0.67384024  0.35792656  0.62404185    -0.06200
C741        C  0.64676288  0.35875635  0.60125588    -0.00300
C742        C  0.60892064  0.35272427  0.60939876    -0.08700
C743        C  0.57801315  0.34771765  0.58640734     0.61600
H744        H  0.56967633  0.35660439  0.64564316     0.12300
H745        H  0.70282223  0.36168079  0.61804229     0.12300
C746        C  0.69541172  0.35926455  0.67747405     0.61900
F747        F  0.55585757  0.30733059  0.59390122    -0.23300
F748        F  0.59159137  0.33954135  0.55799293    -0.20600
F749        F  0.55656005  0.39104502  0.58611475    -0.20300
F750        F  0.68316064  0.35693506  0.70672420    -0.20400
F751        F  0.71554808  0.40280492  0.67359169    -0.20700
F752        F  0.71861202  0.31836351  0.67300335    -0.23400
C753        C  0.77509852  0.55336070  0.70711989    -0.06200
C754        C  0.80361381  0.51953827  0.71527072    -0.00300
C755        C  0.79521099  0.46810543  0.71924839    -0.08800
C756        C  0.75777471  0.45506742  0.72265108    -0.06200
C757        C  0.72924842  0.49137299  0.72048547    -0.00300
C758        C  0.73762842  0.54054312  0.70993933    -0.08700
C759        C  0.70810798  0.58083349  0.70399831     0.61600
H760        H  0.78251837  0.59188197  0.70219406     0.12300
H761        H  0.75067928  0.41683608  0.72867770     0.12300
C762        C  0.82510607  0.42752543  0.72073202     0.61900
F763        F  0.72339867  0.62585322  0.69459015    -0.23300
F764        F  0.68860284  0.59023659  0.72990949    -0.20600
F765        F  0.68396831  0.56511215  0.68166409    -0.20300
F766        F  0.84667696  0.43223716  0.74629064    -0.20400
F767        F  0.84749275  0.43151005  0.69581646    -0.20700
F768        F  0.80989750  0.37986147  0.72100415    -0.23400
C769        C  0.91856596  0.65211925  0.89855404    -0.06200
C770        C  0.88340919  0.66601258  0.90969747    -0.00300
C771        C  0.85805649  0.69182909  0.89049015    -0.08800
C772        C  0.86667065  0.69571969  0.85968209    -0.06200
C773        C  0.90017593  0.67626352  0.84832550    -0.00300
C774        C  0.92760769  0.65777180  0.86828647    -0.08700
C775        C  0.96531888  0.64088204  0.85708457     0.61600
H776        H  0.93855642  0.63413615  0.91358300     0.12300
H777        H  0.84592501  0.70971690  0.84384188     0.12300
C778        C  0.82134089  0.71168426  0.90186085     0.61900
F779        F  0.98892652  0.62629627  0.88039707    -0.23300
F780        F  0.98172658  0.68017466  0.84176464    -0.20600
F781        F  0.96117409  0.60062531  0.83799160    -0.20300
F782        F  0.82768510  0.74565371  0.92462201    -0.20400
F783        F  0.80046904  0.67232336  0.91268715    -0.20700
F784        F  0.80099355  0.73600400  0.87943962    -0.23400
C785        C  0.23905693  0.53858686  0.19741932    -0.06200
C786        C  0.23516184  0.48791787  0.20579360    -0.00300
C787        C  0.26643766  0.45541563  0.20488421    -0.08800
C788        C  0.30169859  0.47714365  0.20384284    -0.06200
C789        C  0.30538139  0.52953071  0.20256746    -0.00300
C790        C  0.27424504  0.55969783  0.19474409    -0.08700
C791        C  0.27701745  0.61468900  0.18592938     0.61600
H792        H  0.21483808  0.56303516  0.19570087     0.12300
H793        H  0.32603190  0.45347164  0.20761021     0.12300
C794        C  0.26408517  0.39860037  0.20595983     0.61900
F795        F  0.25726022  0.62305374  0.15950909    -0.23300
F796        F  0.31341440  0.62902238  0.18121566    -0.20600
F797        F  0.26196589  0.64422613  0.20815013    -0.20300
F798        F  0.28489754  0.37887244  0.18287083    -0.20400
F799        F  0.22804562  0.38172585  0.20238660    -0.20700
F800        F  0.27839412  0.38087012  0.23301645    -0.23400
C801        C  0.01040849  0.44452902  0.03726684    -0.06200
C802        C  0.03872843  0.47986829  0.04175775    -0.00300
C803        C  0.03024174  0.52475480  0.05745551    -0.08800
C804        C  0.99269780  0.53871784  0.05968753    -0.06200
C805        C  0.96450242  0.50808059  0.04820857    -0.00300
C806        C  0.97295779  0.45765501  0.04106858    -0.08700
C807        C  0.94297385  0.41932962  0.03491774     0.61600
H808        H  0.01743692  0.40808333  0.02820381     0.12300
H809        H  0.98538695  0.57616754  0.06708916     0.12300
C810        C  0.05971454  0.55924633  0.07043496     0.61900
F811        F  0.95765051  0.37139211  0.03187315    -0.23300
F812        F  0.92422143  0.43165071  0.00878377    -0.20600
F813        F  0.91823081  0.41849044  0.05842665    -0.20300
F814        F  0.07777130  0.58475034  0.04779589    -0.20400
F815        F  0.08520429  0.53128077  0.08718233    -0.20700
F816        F  0.04425247  0.59464945  0.08927805    -0.23400
C817        C  0.15470649  0.34831022  0.14738049    -0.06200
C818        C  0.11900191  0.36581711  0.15527568    -0.00300
C819        C  0.09430299  0.38192451  0.13224245    -0.08800
C820        C  0.10798262  0.38803450  0.10317413    -0.06200
C821        C  0.14495137  0.37609089  0.09568879    -0.00300
C822        C  0.16800748  0.35252601  0.11762441    -0.08700
C823        C  0.20707001  0.33558024  0.11018944     0.61600
H824        H  0.17345289  0.33617371  0.16526559     0.12300
H825        H  0.08989380  0.40559549  0.08643144     0.12300
C826        C  0.05412516  0.39704147  0.13746852     0.61900
F827        F  0.22776374  0.37632753  0.10087779    -0.23300
F828        F  0.20561033  0.30058285  0.08745386    -0.20600
F829        F  0.22491118  0.31352233  0.13472147    -0.20300
F830        F  0.04926651  0.44753915  0.13070993    -0.20400
F831        F  0.04300141  0.38855005  0.16663597    -0.20700
F832        F  0.03133221  0.36933549  0.11876495    -0.23400
C833        C  0.41748476  0.17120237  0.85986821    -0.06200
C834        C  0.38413446  0.16820284  0.84373669    -0.00300
C835        C  0.34981300  0.17149867  0.85934604    -0.08800
C836        C  0.35050006  0.17228865  0.89095533    -0.06200
C837        C  0.38396894  0.16894491  0.90719012    -0.00300
C838        C  0.41824107  0.17144845  0.89137028    -0.08700
C839        C  0.45665154  0.17341686  0.90582560     0.61600
H840        H  0.44350387  0.16985647  0.84778724     0.12300
H841        H  0.32468024  0.17086781  0.90322650     0.12300
C842        C  0.31236410  0.17241520  0.84312348     0.61900
F843        F  0.47510773  0.21513713  0.89499553    -0.23300
F844        F  0.47657092  0.13075964  0.89829021    -0.20600
F845        F  0.45612992  0.17688293  0.93658381    -0.20300
F846        F  0.30440089  0.12544339  0.83189153    -0.20400
F847        F  0.31274634  0.20702410  0.81985126    -0.20700
F848        F  0.28383987  0.18587594  0.86214746    -0.23400
C849        C  0.47104631  0.96480256  0.04426181    -0.06200
C850        C  0.46591545  0.01565900  0.05115391    -0.00300
C851        C  0.49635831  0.04308875  0.06263817    -0.08800
C852        C  0.53229980  0.02360840  0.05881132    -0.06200
C853        C  0.53782524  0.97637919  0.04565197    -0.00300
C854        C  0.50692704  0.94389069  0.04265812    -0.08700
C855        C  0.51084417  0.88903640  0.03461343     0.61600
H856        H  0.44744388  0.94282629  0.03687337     0.12300
H857        H  0.55591718  0.04715929  0.06402766     0.12300
C858        C  0.49210890  0.09354230  0.07773312     0.61900
F859        F  0.54356390  0.86874459  0.04613454    -0.23300
F860        F  0.48173434  0.86156496  0.04629109    -0.20600
F861        F  0.51050101  0.88465119  0.00382655    -0.20300
F862        F  0.45521620  0.10685308  0.08162257    -0.20400
F863        F  0.50920761  0.13023292  0.06078177    -0.20700
F864        F  0.50900026  0.09126820  0.10577467    -0.23400
C865        C  0.61358674  0.86030008  0.10512803    -0.06200
C866        C  0.65159530  0.86081313  0.09786305    -0.00300
C867        C  0.67838681  0.85102129  0.12048113    -0.08800
C868        C  0.66634375  0.84797140  0.15042259    -0.06200
C869        C  0.62853019  0.85429823  0.15798227    -0.00300
C870        C  0.60150497  0.85636867  0.13487755    -0.08700
C871        C  0.56042141  0.86057723  0.14176996     0.61600
H872        H  0.59342212  0.86867895  0.08756218     0.12300
H873        H  0.68690611  0.84724366  0.16837107     0.12300
C874        C  0.71948383  0.84899129  0.11326903     0.61900
F875        F  0.53865373  0.85811084  0.11598819    -0.23300
F876        F  0.55308213  0.90581549  0.15562791    -0.20600
F877        F  0.55040779  0.82147559  0.16058727    -0.20300
F878        F  0.73063262  0.89460041  0.10138033    -0.20400
F879        F  0.72585309  0.81157312  0.09255652    -0.20700
F880        F  0.74106812  0.83864777  0.13853301    -0.23400
C881        C  0.30491501  0.96107944  0.71839489    -0.06200
C882        C  0.30882516  0.00804607  0.70453216    -0.00300
C883        C  0.27771191  0.03144085  0.69086613    -0.08800
C884        C  0.24247383  0.01315804  0.69753812    -0.06200
C885        C  0.23793295  0.97258742  0.71765260    -0.00300
C886        C  0.26966973  0.94304316  0.72598864    -0.08700
C887        C  0.26778136  0.89581655  0.74522224     0.61600
H888        H  0.32951700  0.94288660  0.72782459     0.12300
H889        H  0.21847142  0.03374774  0.68891026     0.12300
C890        C  0.28046963  0.07794468  0.67127659     0.61900
F891        F  0.30118814  0.86965135  0.74516814    -0.23300
F892        F  0.24092458  0.86385191  0.73439404    -0.20600
F893        F  0.25985999  0.90858145  0.77446523    -0.20300
F894        F  0.31696588  0.08988773  0.66495419    -0.20400
F895        F  0.26389800  0.11803294  0.68556950    -0.20700
F896        F  0.26195857  0.06983603  0.64440322    -0.23400
C897        C  0.09881106  0.86274273  0.63601289    -0.06200
C898        C  0.12701325  0.86532750  0.65759416    -0.00300
C899        C  0.16459595  0.86091114  0.64817366    -0.08800
C900        C  0.17279612  0.86312551  0.61732382    -0.06200
C901        C  0.14450653  0.86865260  0.59573579    -0.00300
C902        C  0.10683500  0.86474979  0.60521576    -0.08700
C903        C  0.07368779  0.86605921  0.58410028     0.61600
H904        H  0.07010781  0.86508195  0.64312963     0.12300
H905        H  0.20154089  0.86514549  0.61036441     0.12300
C906        C  0.19695992  0.85642428  0.66997896     0.61900
F907        F  0.05282981  0.82317388  0.58841257    -0.23300
F908        F  0.08382027  0.86813150  0.55440303    -0.20600
F909        F  0.05186768  0.90754768  0.59041145    -0.20300
F910        F  0.18527317  0.85075622  0.69919757    -0.20400
F911        F  0.21878661  0.89881758  0.66781509    -0.20700
F912        F  0.21824351  0.81473319  0.66292341    -0.23400
C913        C  0.81090797  0.96389241  0.21253396    -0.06200
C914        C  0.81431094  0.01400067  0.20295770    -0.00300
C915        C  0.78292021  0.03951651  0.19101193    -0.08800
C916        C  0.74783094  0.01916840  0.19602528    -0.06200
C917        C  0.74378355  0.97335409  0.21155660    -0.00300
C918        C  0.77568393  0.94257019  0.21669741    -0.08700
C919        C  0.77311794  0.88944579  0.22898484     0.61600
H920        H  0.83546088  0.94386209  0.22068400     0.12300
H921        H  0.72354936  0.04139908  0.18975482     0.12300
C922        C  0.78532573  0.09031234  0.17560448     0.61900
F923        F  0.80570729  0.86271791  0.22434920    -0.23300
F924        F  0.74447012  0.86407327  0.21487252    -0.20600
F925        F  0.76675910  0.89100304  0.25944297    -0.20300
F926        F  0.82148567  0.10169480  0.16786638    -0.20400
F927        F  0.77184951  0.12709070  0.19442396    -0.20700
F928        F  0.76400140  0.09021938  0.14956787    -0.23400
C929        C  0.96211018  0.97258803  0.54730705    -0.06200
C930        C  0.96027404  0.02116203  0.55891376    -0.00300
C931        C  0.99299865  0.04428844  0.56938121    -0.08800
C932        C  0.02718941  0.02213638  0.56240984    -0.06200
C933        C  0.02921234  0.97970911  0.54374217    -0.00300
C934        C  0.99604138  0.95225759  0.53774007    -0.08700
C935        C  0.99454928  0.90590440  0.51804578     0.61600
H936        H  0.93634839  0.95514652  0.54030128     0.12300
H937        H  0.05233814  0.04182746  0.56859456     0.12300
C938        C  0.99264641  0.09617944  0.58308708     0.61900
F939        F  0.96041580  0.88237039  0.51968965    -0.23300
F940        F  0.02108322  0.87100138  0.52688592    -0.20600
F941        F  0.00017761  0.91988783  0.48848653    -0.20300
F942        F  0.95941505  0.10534510  0.59749089    -0.20400
F943        F  0.99745004  0.13202352  0.56081834    -0.20700
F944        F  0.02123643  0.10050390  0.60391888    -0.23400
C945        C  0.90111705  0.10639743  0.36191230    -0.06200
C946        C  0.89897201  0.15273397  0.34686047    -0.00300
C947        C  0.88907343  0.19615361  0.36325271    -0.08800
C948        C  0.88063293  0.19093477  0.39422664    -0.06200
C949        C  0.88134540  0.14363385  0.40882683    -0.00300
C950        C  0.89050612  0.10027088  0.39172744    -0.08700
C951        C  0.88867681  0.04656260  0.40388102     0.61600
H952        H  0.90918530  0.07353663  0.34925872     0.12300
H953        H  0.87400090  0.22376573  0.40727044     0.12300
C954        C  0.88785550  0.24736379  0.34824814     0.61900
F955        F  0.88443489  0.01213833  0.38096845    -0.23300
F956        F  0.85860530  0.04080879  0.42252956    -0.20600
F957        F  0.92114906  0.03476756  0.41938215    -0.20300
F958        F  0.86398892  0.24666274  0.32387614    -0.20400
F959        F  0.92304203  0.25972541  0.33859849    -0.20700
F960        F  0.87568897  0.28435172  0.36754799    -0.23400
C961        C  0.95189481  0.67241966  0.65178861    -0.06200
C962        C  0.94333767  0.62363137  0.66150159    -0.00300
C963        C  0.94455075  0.58386375  0.64009646    -0.08800
C964        C  0.94736193  0.59619522  0.60934010    -0.06200
C965        C  0.95137324  0.64596017  0.59961802    -0.00300
C966        C  0.95781232  0.68373562  0.62140106    -0.08700
C967        C  0.97076018  0.73646700  0.61382846     0.61600
H968        H  0.95369813  0.70242125  0.66801890     0.12300
H969        H  0.94385927  0.56730478  0.59260440     0.12300
C970        C  0.94229147  0.52861527  0.64889083     0.61900
F971        F  0.99948206  0.74953536  0.63312436    -0.23300
F972        F  0.94164575  0.77007530  0.61734517    -0.20600
F973        F  0.98411837  0.74040203  0.58494915    -0.20300
F974        F  0.90624326  0.51675843  0.65654063    -0.20400
F975        F  0.96606163  0.51817031  0.67279922    -0.20700
F976        F  0.95270253  0.49773454  0.62552174    -0.23400
C977        C  0.05099639  0.71697939  0.51134113    -0.06200
C978        C  0.02230369  0.71648441  0.48985883    -0.00300
C979        C  0.02642515  0.74448552  0.46313115    -0.08800
C980        C  0.05429476  0.78163104  0.46205239    -0.06200
C981        C  0.08088486  0.78667852  0.48542469    -0.00300
C982        C  0.08189132  0.74893144  0.50838959    -0.08700
C983        C  0.11466349  0.74170268  0.52983414     0.61600
H984        H  0.04826056  0.69352776  0.53120214     0.12300
H985        H  0.05531029  0.80706537  0.44296854     0.12300
C986        C  0.00212341  0.73360411  0.43593535     0.61900
F987        F  0.11211144  0.69704234  0.54585584    -0.23300
F988        F  0.11616040  0.78042220  0.55013182    -0.20600
F989        F  0.14740007  0.73982991  0.51386191    -0.20300
F990        F  0.96490530  0.73748655  0.44286330    -0.20400
F991        F  0.00921439  0.68505095  0.42661927    -0.20700
F992        F  0.00933255  0.76609800  0.41231567    -0.23400
C993        C  0.90337154  0.92615403  0.46552701    -0.06200
C994        C  0.87112851  0.94773412  0.47764910    -0.00300
C995        C  0.83911258  0.91661377  0.48104634    -0.08800
C996        C  0.84331554  0.86431495  0.47796558    -0.06200
C997        C  0.87778931  0.84244306  0.47152466    -0.00300
C998        C  0.90679299  0.87393270  0.46156572    -0.08700
C999        C  0.94043405  0.85283311  0.44580332     0.61600
H1000       H  0.92684752  0.94998445  0.46057844     0.12300
H1001       H  0.82052439  0.83986815  0.48388238     0.12300
C1002       C  0.80077917  0.93690272  0.48878699     0.61900
F1003       F  0.95965882  0.89009486  0.43080126    -0.23300
F1004       F  0.92888028  0.81819457  0.42477397    -0.20600
F1005       F  0.96446943  0.83015733  0.46622925    -0.20300
F1006       F  0.79172039  0.97622054  0.46964609    -0.20400
F1007       F  0.80008229  0.95289816  0.51819810    -0.20700
F1008       F  0.77347380  0.90087701  0.48549360    -0.23400
C1009       C  0.80914405  0.54566764  0.54555427    -0.06200
C1010       C  0.83142328  0.53985792  0.52031240    -0.00300
C1011       C  0.82428606  0.49957849  0.50058527    -0.08800
C1012       C  0.79259895  0.46930496  0.50527371    -0.06200
C1013       C  0.76794152  0.47787940  0.52915347    -0.00300
C1014       C  0.77788906  0.51512948  0.55075984    -0.08700
C1015       C  0.75545919  0.52477904  0.57887329     0.61600
H1016       H  0.81516715  0.57671486  0.56036173     0.12300
H1017       H  0.78590092  0.44029143  0.48927910     0.12300
C1018       C  0.84999503  0.48910301  0.47457916     0.61900
F1019       F  0.77476507  0.55419919  0.59917435    -0.23300
F1020       F  0.74758937  0.47976316  0.59313447    -0.20600
F1021       F  0.72278480  0.54986078  0.57140865    -0.20300
F1022       F  0.88552933  0.47965384  0.48550946    -0.20400
F1023       F  0.85093778  0.53004718  0.45539807    -0.20700
F1024       F  0.83867257  0.44787125  0.45819416    -0.23400
C1025       C  0.83651215  0.69638299  0.14117828    -0.06200
C1026       C  0.83483915  0.65581093  0.16182487    -0.00300
C1027       C  0.83109448  0.60642821  0.15041820    -0.08800
C1028       C  0.83168375  0.59969403  0.11905874    -0.06200
C1029       C  0.83635933  0.63997857  0.09867333    -0.00300
C1030       C  0.83785131  0.68948082  0.10991401    -0.08700
C1031       C  0.84299135  0.73475587  0.08941591     0.61600
H1032       H  0.83816716  0.73418279  0.14980128     0.12300
H1033       H  0.82963234  0.56210959  0.11012393     0.12300
C1034       C  0.82784357  0.56061308  0.17080379     0.61900
F1035       F  0.84581170  0.77908241  0.10528302    -0.23300
F1036       F  0.81290912  0.73952646  0.06996932    -0.20600
F1037       F  0.87528317  0.72892703  0.07324825    -0.20300
F1038       F  0.79673455  0.56531365  0.18855986    -0.20400
F1039       F  0.85933752  0.55600376  0.18870510    -0.20700
F1040       F  0.82433384  0.51656596  0.15474100    -0.23400
C1041       C  0.72441588  0.71330237  0.24746315    -0.06200
C1042       C  0.75118570  0.71314650  0.27042639    -0.00300
C1043       C  0.74440081  0.74048248  0.29672191    -0.08800
C1044       C  0.71536371  0.77647678  0.29635491    -0.06200
C1045       C  0.69105731  0.78184092  0.27141885    -0.00300
C1046       C  0.69308207  0.74522464  0.24823506    -0.08700
C1047       C  0.66381381  0.74056767  0.22361568     0.61600
H1048       H  0.72966523  0.69065832  0.22784921     0.12300
H1049       H  0.71206224  0.80134736  0.31525380     0.12300
C1050       C  0.76776653  0.73076018  0.32474708     0.61900
F1051       F  0.67027307  0.69941439  0.20553381    -0.23300
F1052       F  0.66385961  0.78288511  0.20559615    -0.20600
F1053       F  0.62912997  0.73456649  0.23622193    -0.20300
F1054       F  0.80496659  0.73898534  0.31927445    -0.20400
F1055       F  0.76349278  0.68117461  0.33352075    -0.20700
F1056       F  0.75696273  0.76113194  0.34818681    -0.23400
C1057       C  0.92487990  0.86558045  0.29884538    -0.06200
C1058       C  0.88908242  0.84497315  0.29916976    -0.00300
C1059       C  0.85859479  0.87759087  0.30454676    -0.08800
C1060       C  0.86354959  0.92957038  0.30042667    -0.06200
C1061       C  0.89835867  0.94963269  0.29298972    -0.00300
C1062       C  0.93029198  0.91764907  0.29577086    -0.08700
C1063       C  0.96990638  0.93694446  0.29530335     0.61600
H1064       H  0.94860522  0.84051733  0.29723388     0.12300
H1065       H  0.83959751  0.95435086  0.30128770     0.12300
C1066       C  0.82199771  0.85838299  0.31649743     0.61900
F1067       F  0.99529844  0.90050440  0.30469506    -0.23300
F1068       F  0.97289802  0.97654488  0.31480740    -0.20600
F1069       F  0.97967648  0.95205695  0.26674728    -0.20300
F1070       F  0.79891516  0.89742738  0.32516310    -0.20400
F1071       F  0.80324120  0.83108947  0.29511215    -0.20700
F1072       F  0.82897996  0.82837257  0.34145227    -0.23400
C1073       C  0.85228794  0.62888359  0.36579805    -0.06200
C1074       C  0.88517324  0.62375288  0.34983446    -0.00300
C1075       C  0.91891419  0.61266408  0.36547400    -0.08800
C1076       C  0.91926008  0.61304993  0.39709665    -0.06200
C1077       C  0.88699688  0.62430764  0.41310303    -0.00300
C1078       C  0.85234604  0.62847887  0.39729584    -0.08700
C1079       C  0.81534152  0.63660509  0.41268321     0.61600
H1080       H  0.82674591  0.63683421  0.35348855     0.12300
H1081       H  0.94526987  0.60852953  0.40934845     0.12300
C1082       C  0.95452252  0.60146795  0.34881262     0.61900
F1083       F  0.78639409  0.61802914  0.39538767    -0.23300
F1084       F  0.80940526  0.68744452  0.41687503    -0.20600
F1085       F  0.81436532  0.61194850  0.44000409    -0.20300
F1086       F  0.96777296  0.64474942  0.33549058    -0.20400
F1087       F  0.94764269  0.56613985  0.32698651    -0.20700
F1088       F  0.98197975  0.58235097  0.36782567    -0.23400
C1089       C  0.95536856  0.51343057  0.26307131    -0.06200
C1090       C  0.94911417  0.55141829  0.24157981    -0.00300
C1091       C  0.97033782  0.55167764  0.21508274    -0.08800
C1092       C  0.99944705  0.51643688  0.21240307    -0.06200
C1093       C  0.00864355  0.48144505  0.23539678    -0.00300
C1094       C  0.98495673  0.47851049  0.26075360    -0.08700
C1095       C  0.99136823  0.44063932  0.28602220     0.61600
H1096       H  0.93768209  0.51283796  0.28255296     0.12300
H1097       H  0.01637049  0.51813944  0.19242725     0.12300
C1098       C  0.96432653  0.58858491  0.18922217     0.61900
F1099       F  0.96377315  0.44300606  0.30737928    -0.23300
F1100       F  0.02488123  0.45007166  0.30030110    -0.20600
F1101       F  0.99157711  0.39246699  0.27460271    -0.20300
F1102       F  0.99653188  0.61558332  0.18490537    -0.20400
F1103       F  0.93550233  0.62224263  0.19368725    -0.20700
F1104       F  0.95644839  0.56209699  0.16337940    -0.23400
C1105       C  0.17475883  0.95180918  0.35604070    -0.06200
C1106       C  0.18335483  0.90469759  0.34415847    -0.00300
C1107       C  0.19346401  0.86483398  0.36397788    -0.08800
C1108       C  0.18959217  0.87142715  0.39515123    -0.06200
C1109       C  0.17592053  0.91664491  0.40695351    -0.00300
C1110       C  0.17118857  0.95890081  0.38718516    -0.08700
C1111       C  0.15943995  0.01071922  0.39789067     0.61600
H1112       H  0.16731112  0.98209140  0.34062967     0.12300
H1113       H  0.19430419  0.83973184  0.41017668     0.12300
C1114       C  0.20631818  0.81451990  0.35216884     0.61900
F1115       F  0.16876326  0.04763389  0.37725406    -0.23300
F1116       F  0.17701952  0.02223287  0.42466518    -0.20600
F1117       F  0.12132847  0.01225462  0.40164103    -0.20300
F1118       F  0.23018814  0.82180845  0.32844247    -0.20400
F1119       F  0.17598295  0.78709015  0.34262707    -0.20700
F1120       F  0.22522627  0.78698065  0.37407727    -0.23400
C1121       C  0.06441750  0.02290484  0.29045691    -0.06200
C1122       C  0.08757572  0.01599142  0.26544206    -0.00300
C1123       C  0.08552479  0.05216616  0.24167154    -0.08800
C1124       C  0.05420849  0.08412970  0.24005841    -0.06200
C1125       C  0.02846107  0.08603861  0.26333227    -0.00300
C1126       C  0.03644813  0.06034135  0.29042128    -0.08700
C1127       C  0.01664391  0.07443477  0.31906354     0.61600
H1128       H  0.06831717  0.99888974  0.31000517     0.12300
H1129       H  0.04854898  0.10606329  0.21988771     0.12300
C1130       C  0.11555449  0.05785808  0.21819694     0.61900
F1131       F  0.02776610  0.04408763  0.34296912    -0.23300
F1132       F  0.97851974  0.07089396  0.31569399    -0.20600
F1133       F  0.02522520  0.12360325  0.32594997    -0.20300
F1134       F  0.11640717  0.01670705  0.19965315    -0.20400
F1135       F  0.14976892  0.06309711  0.23229690    -0.20700
F1136       F  0.10964679  0.10011756  0.20036002    -0.23400
C1137       C  0.00647987  0.84748945  0.21655849    -0.06200
C1138       C  0.03624891  0.81353844  0.21302233    -0.00300
C1139       C  0.02944704  0.76723871  0.19820698    -0.08800
C1140       C  0.99262396  0.75092198  0.19615392    -0.06200
C1141       C  0.96340209  0.78068584  0.20659218    -0.00300
C1142       C  0.96966038  0.83227925  0.21165682    -0.08700
C1143       C  0.93817124  0.87056207  0.21149961     0.61600
H1144       H  0.01201362  0.88518515  0.22435041     0.12300
H1145       H  0.98679819  0.71258342  0.18973794     0.12300
C1146       C  0.06003509  0.73352118  0.18615978     0.61900
F1147       F  0.95144757  0.91924954  0.21169186    -0.23300
F1148       F  0.91589913  0.86433235  0.23611149    -0.20600
F1149       F  0.91679750  0.86482273  0.18578582    -0.20300
F1150       F  0.07987495  0.71137486  0.20958750    -0.20400
F1151       F  0.08358412  0.76144916  0.16832575    -0.20700
F1152       F  0.04573312  0.69552103  0.16853900    -0.23400
C1153       C  0.28295548  0.81258119  0.26112654    -0.06200
C1154       C  0.26560157  0.81539650  0.23277192    -0.00300
C1155       C  0.28112443  0.78747698  0.20873142    -0.08800
C1156       C  0.31120017  0.75423079  0.21485938    -0.06200
C1157       C  0.32573481  0.74787236  0.24399287    -0.00300
C1158       C  0.31239695  0.77881441  0.26725907    -0.08700
C1159       C  0.32798616  0.77444118  0.29891606     0.61600
H1160       H  0.27142142  0.83429461  0.27924231     0.12300
H1161       H  0.32204293  0.73063823  0.19727416     0.12300
C1162       C  0.26617442  0.79209503  0.17679009     0.61900
F1163       F  0.31561355  0.81307847  0.31694827    -0.23300
F1164       F  0.36640698  0.77604283  0.29841595    -0.20600
F1165       F  0.31683380  0.72956094  0.31152936    -0.20300
F1166       F  0.26124394  0.84224925  0.16913966    -0.20400
F1167       F  0.23264156  0.76736683  0.17416534    -0.20700
F1168       F  0.29048555  0.77121511  0.15641205    -0.23400
C1169       C  0.10530907  0.68105123  0.27627399    -0.06200
C1170       C  0.14029163  0.70377882  0.27838743    -0.00300
C1171       C  0.17258863  0.67324837  0.28147289    -0.08800
C1172       C  0.16887421  0.62092819  0.27919697    -0.06200
C1173       C  0.13432994  0.59847450  0.27311825    -0.00300
C1174       C  0.10159802  0.62889041  0.27277009    -0.08700
C1175       C  0.06312807  0.60828129  0.26575449     0.61600
H1176       H  0.08095558  0.70503114  0.27377123     0.12300
H1177       H  0.19381577  0.59776807  0.28007318     0.12300
C1178       C  0.21158438  0.69356612  0.28625346     0.61900
F1179       F  0.03530592  0.64178012  0.27361039    -0.23300
F1180       F  0.05713690  0.56415619  0.28136675    -0.20600
F1181       F  0.05987700  0.59942018  0.23532120    -0.20300
F1182       F  0.21228337  0.74486831  0.29047728    -0.20400
F1183       F  0.22742903  0.67106092  0.31146475    -0.20700
F1184       F  0.23308809  0.68222613  0.26166969    -0.23400
C1185       C  0.07330821  0.86102979  0.85592338    -0.06200
C1186       C  0.07721606  0.90904712  0.84314560    -0.00300
C1187       C  0.07476324  0.95165283  0.86203324    -0.08800
C1188       C  0.07613741  0.94447730  0.89332974    -0.06200
C1189       C  0.07756664  0.89619707  0.90611446    -0.00300
C1190       C  0.07250601  0.85394366  0.88724839    -0.08700
C1191       C  0.06730520  0.80072332  0.89895605     0.61600
H1192       H  0.07361566  0.82837120  0.84152837     0.12300
H1193       H  0.07888326  0.97692040  0.90774189     0.12300
C1194       C  0.07308423  0.00518525  0.85012315     0.61900
F1195       F  0.03565131  0.78074481  0.88593516    -0.23300
F1196       F  0.06298482  0.79846285  0.92973942    -0.20600
F1197       F  0.09761654  0.77145183  0.89124199    -0.20300
F1198       F  0.06175313  0.00743046  0.82035105    -0.20400
F1199       F  0.10772383  0.02692702  0.85303929    -0.20700
F1200       F  0.04776301  0.03274484  0.86649751    -0.23400
C1201       C  0.99013184  0.80149276  0.98911193    -0.06200
C1202       C  0.00753158  0.80691276  0.01727474    -0.00300
C1203       C  0.99308090  0.77930330  0.04205555    -0.08800
C1204       C  0.96455781  0.74374403  0.03703722    -0.06200
C1205       C  0.94895353  0.73604172  0.00842599    -0.00300
C1206       C  0.96123893  0.76663975  0.98424753    -0.08700
C1207       C  0.94462113  0.76148701  0.95308717     0.61600
H1208       H  0.00099459  0.82259997  0.97030950     0.12300
H1209       H  0.95491212  0.72087218  0.05558738     0.12300
C1210       C  0.00722552  0.78557119  0.07400055     0.61900
F1211       F  0.95840145  0.79683566  0.93320136    -0.23300
F1212       F  0.90643455  0.76756408  0.95416986    -0.20600
F1213       F  0.95317116  0.71452702  0.94226033    -0.20300
F1214       F  0.02402994  0.83159870  0.07822662    -0.20400
F1215       F  0.03238330  0.74750588  0.08085812    -0.20700
F1216       F  0.97790551  0.78281537  0.09380289    -0.23400
C1217       C  0.16701446  0.62198244  0.96419353    -0.06200
C1218       C  0.13327454  0.59652160  0.96784147    -0.00300
C1219       C  0.09939424  0.62422735  0.96618131    -0.08800
C1220       C  0.10112832  0.67704965  0.96667466    -0.06200
C1221       C  0.13524804  0.70244847  0.96722178    -0.00300
C1222       C  0.16860020  0.67476467  0.96313883    -0.08700
C1223       C  0.20585917  0.70027193  0.95921648     0.61600
H1224       H  0.19252017  0.60005884  0.96399151     0.12300
H1225       H  0.07576506  0.69903684  0.96836303     0.12300
C1226       C  0.06167598  0.59888450  0.96501821     0.61900
F1227       F  0.23427803  0.66583990  0.95473690    -0.23300
F1228       F  0.21470906  0.72774797  0.98444557    -0.20600
F1229       F  0.20412090  0.73183507  0.93438798    -0.20300
F1230       F  0.05609067  0.57098554  0.99080234    -0.20400
F1231       F  0.05996894  0.56764775  0.94041529    -0.20700
F1232       F  0.03281329  0.63348759  0.96232158    -0.23400
C1233       C  0.09826844  0.93033657  0.11378520    -0.06200
C1234       C  0.12688748  0.92501310  0.09309813    -0.00300
C1235       C  0.16445044  0.92837857  0.10336922    -0.08800
C1236       C  0.17197111  0.93127297  0.13431324    -0.06200
C1237       C  0.14343611  0.92878489  0.15523116    -0.00300
C1238       C  0.10577337  0.93106525  0.14484466    -0.08700
C1239       C  0.07226658  0.93024232  0.16527600     0.61600
H1240       H  0.06966525  0.92802972  0.10593585     0.12300
H1241       H  0.20061238  0.92932757  0.14221156     0.12300
C1242       C  0.19780437  0.92510960  0.08299903     0.61900
F1243       F  0.04987693  0.97156973  0.15888111    -0.23300
F1244       F  0.08158140  0.93147838  0.19540366    -0.20600
F1245       F  0.05209916  0.88711968  0.15994498    -0.20300
F1246       F  0.22090606  0.96551494  0.08821943    -0.20400
F1247       F  0.18799732  0.92589964  0.05301830    -0.20700
F1248       F  0.21726109  0.88112914  0.08922524    -0.23400
C1249       C  0.20895707  0.01741954  0.95807452    -0.06200
C1250       C  0.18438509  0.01214605  0.98246955    -0.00300
C1251       C  0.18847668  0.04614680  0.00681336    -0.08800
C1252       C  0.22169944  0.07395730  0.00923986    -0.06200
C1253       C  0.24805569  0.07466064  0.98627213    -0.00300
C1254       C  0.23939011  0.05083275  0.95893652    -0.08700
C1255       C  0.26086759  0.06282244  0.93060677     0.61600
H1256       H  0.20417387  0.99520609  0.93819076     0.12300
H1257       H  0.22786727  0.09437800  0.02959880     0.12300
C1258       C  0.15829059  0.05434906  0.02984734     0.61900
F1259       F  0.25135588  0.03095782  0.90741210    -0.23300
F1260       F  0.29880298  0.05914603  0.93538570    -0.20600
F1261       F  0.25254957  0.11156915  0.92170850    -0.20300
F1262       F  0.15482692  0.01266694  0.04812583    -0.20400
F1263       F  0.12477797  0.06405011  0.01528975    -0.20700
F1264       F  0.16598984  0.09507352  0.04797329    -0.23400
C1265       C  0.32522150  0.61449589  0.65084666    -0.06200
C1266       C  0.32761441  0.66503818  0.65907018    -0.00300
C1267       C  0.32678572  0.70291392  0.63608228    -0.08800
C1268       C  0.32784359  0.68806084  0.60594793    -0.06200
C1269       C  0.32972676  0.63744821  0.59789221    -0.00300
C1270       C  0.32634654  0.59971989  0.62063521    -0.08700
C1271       C  0.32525777  0.54384669  0.61374873     0.61600
H1272       H  0.32509218  0.58613572  0.66842551     0.12300
H1273       H  0.32961627  0.71633573  0.58840290     0.12300
C1274       C  0.32614622  0.75905963  0.64254326     0.61900
F1275       F  0.31377305  0.51582543  0.63824428    -0.23300
F1276       F  0.36038303  0.52711326  0.60615373    -0.20600
F1277       F  0.30057803  0.53488354  0.59042620    -0.20300
F1278       F  0.30016051  0.76973398  0.66425002    -0.20400
F1279       F  0.31664522  0.78715402  0.61723318    -0.20700
F1280       F  0.36096853  0.77442572  0.65203102    -0.23400
C1281       C  0.47413162  0.47453022  0.75329558    -0.06200
C1282       C  0.49931712  0.48085223  0.72958751    -0.00300
C1283       C  0.49066304  0.51794962  0.70713904    -0.08800
C1284       C  0.46258716  0.55376838  0.71277461    -0.06200
C1285       C  0.44015660  0.55040065  0.73809367    -0.00300
C1286       C  0.44369033  0.50775538  0.75717607    -0.08700
C1287       C  0.41539057  0.49761039  0.78139618     0.61600
H1288       H  0.47922686  0.44472849  0.76955175     0.12300
H1289       H  0.45847374  0.58539711  0.69757621     0.12300
C1290       C  0.51062784  0.52110241  0.67732410     0.61900
F1291       F  0.42182745  0.45187006  0.79565614    -0.23300
F1292       F  0.38015628  0.49661004  0.76864658    -0.20600
F1293       F  0.41656124  0.53483538  0.80269197    -0.20300
F1294       F  0.51826006  0.47345655  0.66667089    -0.20400
F1295       F  0.54332518  0.54756469  0.68059443    -0.20700
F1296       F  0.48873574  0.54542688  0.65585810    -0.23400
C1297       C  0.24025540  0.74826931  0.79283197    -0.06200
C1298       C  0.24645664  0.72404907  0.76561990    -0.00300
C1299       C  0.21831163  0.72558929  0.74319974    -0.08800
C1300       C  0.18746375  0.75800893  0.74681222    -0.06200
C1301       C  0.18414358  0.78899189  0.77213693    -0.00300
C1302       C  0.20953925  0.78090592  0.79664627    -0.08700
C1303       C  0.20582783  0.80786604  0.82636837     0.61600
H1304       H  0.26152786  0.74513626  0.81018324     0.12300
H1305       H  0.16734414  0.76211060  0.72867360     0.12300
C1306       C  0.22154914  0.69368735  0.71529950     0.61900
F1307       F  0.22714132  0.78482449  0.84870791    -0.23300
F1308       F  0.16919545  0.80737835  0.83551466    -0.20600
F1309       F  0.21772895  0.85692377  0.82346165    -0.20300
F1310       F  0.22974107  0.64451649  0.72352301    -0.20400
F1311       F  0.24951036  0.71168619  0.69725666    -0.20700
F1312       F  0.18875969  0.69379977  0.69871937    -0.23400
C1313       C  0.42023752  0.86966824  0.79909329    -0.06200
C1314       C  0.38564653  0.84600360  0.79793562    -0.00300
C1315       C  0.35367796  0.87459416  0.80538950    -0.08800
C1316       C  0.35534953  0.92732858  0.80256087    -0.06200
C1317       C  0.38941868  0.95116612  0.79732732    -0.00300
C1318       C  0.42248776  0.92214436  0.80144094    -0.08700
C1319       C  0.45870334  0.94544643  0.81164053     0.61600
H1320       H  0.44542262  0.84746620  0.79694299     0.12300
H1321       H  0.33000295  0.94950848  0.80320425     0.12300
C1322       C  0.31982535  0.84997225  0.81896449     0.61900
F1323       F  0.48412686  0.90917004  0.82116658    -0.23300
F1324       F  0.45163892  0.97629761  0.83573673    -0.20600
F1325       F  0.47474517  0.97280933  0.78890016    -0.20300
F1326       F  0.33119823  0.81775606  0.84189083    -0.20400
F1327       F  0.30025133  0.82309673  0.79789643    -0.20700
F1328       F  0.29604082  0.88539120  0.83102220    -0.23400
C1329       C  0.44432189  0.69533933  0.11713078    -0.06200
C1330       C  0.44332578  0.65405657  0.09739928    -0.00300
C1331       C  0.44524010  0.60486933  0.10973081    -0.08800
C1332       C  0.44355281  0.59910334  0.14115871    -0.06200
C1333       C  0.44066392  0.64044600  0.16069934    -0.00300
C1334       C  0.44308880  0.68959461  0.14853799    -0.08700
C1335       C  0.44304088  0.73595868  0.16817183     0.61600
H1336       H  0.44478834  0.73288726  0.10761102     0.12300
H1337       H  0.44339537  0.56159745  0.15076626     0.12300
C1338       C  0.44817357  0.55856498  0.09021049     0.61900
F1339       F  0.44513638  0.77993713  0.15144703    -0.23300
F1340       F  0.47344939  0.73432131  0.18745261    -0.20600
F1341       F  0.41065350  0.73795390  0.18453157    -0.20300
F1342       F  0.47976929  0.56151845  0.07289954    -0.20400
F1343       F  0.41714720  0.55514349  0.07181265    -0.20700
F1344       F  0.45068223  0.51473345  0.10712559    -0.23400
C1345       C  0.28086370  0.50940748  0.04335402    -0.06200
C1346       C  0.26998025  0.48120720  0.01815908    -0.00300
C1347       C  0.29307200  0.48214088  0.99250252    -0.08800
C1348       C  0.32262284  0.51678673  0.99152530    -0.06200
C1349       C  0.33006385  0.54977510  0.01520184    -0.00300
C1350       C  0.31078280  0.54332545  0.04251769    -0.08700
C1351       C  0.32062602  0.57019520  0.07141428     0.61600
H1352       H  0.26466466  0.50657701  0.06367182     0.12300
H1353       H  0.33954022  0.51967110  0.97168704     0.12300
C1354       C  0.28597713  0.44845207  0.96580058     0.61900
F1355       F  0.34631145  0.60795344  0.06753646    -0.23300
F1356       F  0.33520197  0.53556056  0.09174397    -0.20600
F1357       F  0.28894015  0.59093671  0.08361985    -0.20300
F1358       F  0.25147233  0.45911524  0.95336436    -0.20400
F1359       F  0.28737960  0.39867264  0.97498123    -0.20700
F1360       F  0.31222185  0.45497504  0.94364084    -0.23400
C1361       C  0.30732486  0.83200430  0.03267740    -0.06200
C1362       C  0.31145810  0.78462367  0.04610373    -0.00300
C1363       C  0.28007663  0.76082751  0.05815564    -0.08800
C1364       C  0.24480606  0.77954964  0.05061185    -0.06200
C1365       C  0.24016213  0.82168143  0.03164735    -0.00300
C1366       C  0.27196876  0.85107924  0.02470333    -0.08700
C1367       C  0.27003515  0.89991750  0.00697652     0.61600
H1368       H  0.33197923  0.85031240  0.02429340     0.12300
H1369       H  0.22083364  0.75849904  0.05793795     0.12300
C1370       C  0.28239533  0.71293648  0.07644402     0.61900
F1371       F  0.30390772  0.92422931  0.00753150    -0.23300
F1372       F  0.24427539  0.93227921  0.01909896    -0.20600
F1373       F  0.26056724  0.89018512  0.97746715    -0.20300
F1374       F  0.31857871  0.70099265  0.08481728    -0.20400
F1375       F  0.26182958  0.71827662  0.10228947    -0.20700
F1376       F  0.26764883  0.67440535  0.05959828    -0.23400
C1377       C  0.35378642  0.62130381  0.86239834    -0.06200
C1378       C  0.38617203  0.62698547  0.84572256    -0.00300
C1379       C  0.42132812  0.62648019  0.86094759    -0.08800
C1380       C  0.42229759  0.62711009  0.89243959    -0.06200
C1381       C  0.38972879  0.62701011  0.90909802    -0.00300
C1382       C  0.35478873  0.62171099  0.89400457    -0.08700
C1383       C  0.31845265  0.61754356  0.91089660     0.61600
H1384       H  0.32734392  0.62110021  0.85050548     0.12300
H1385       H  0.44873255  0.63113211  0.90411464     0.12300
C1386       C  0.45850136  0.62930817  0.84523457     0.61900
F1387       F  0.28897948  0.60588045  0.89199506    -0.23300
F1388       F  0.30992827  0.66237698  0.92466653    -0.20600
F1389       F  0.32150676  0.57989151  0.93225501    -0.20300
F1390       F  0.47080289  0.67841340  0.84536245    -0.20400
F1391       F  0.45652202  0.61273854  0.81606872    -0.20700
F1392       F  0.48447838  0.59927942  0.86014796    -0.23400
C1393       C  0.55250191  0.71761155  0.01556422    -0.06200
C1394       C  0.52768117  0.71372303  0.99127891    -0.00300
C1395       C  0.53687647  0.73676414  0.96372353    -0.08800
C1396       C  0.56603322  0.77226469  0.96336291    -0.06200
C1397       C  0.58825484  0.78128774  0.98908190    -0.00300
C1398       C  0.58376373  0.74913060  0.01450284    -0.08700
C1399       C  0.61007899  0.74987292  0.04127546     0.61600
H1400       H  0.54569167  0.69818360  0.03621428     0.12300
H1401       H  0.57106153  0.79400059  0.94319209     0.12300
C1402       C  0.51588742  0.72356732  0.93518528     0.61900
F1403       F  0.60083893  0.71459365  0.06291644    -0.23300
F1404       F  0.60876535  0.79649920  0.05427584    -0.20600
F1405       F  0.64592479  0.73938796  0.03214110    -0.20300
F1406       F  0.47835597  0.73343638  0.93806010    -0.20400
F1407       F  0.52056856  0.67285373  0.92967757    -0.20700
F1408       F  0.52880544  0.75023622  0.91066256    -0.23400
C1409       C  0.36009958  0.86765214  0.95217488    -0.06200
C1410       C  0.39470840  0.84448844  0.95776329    -0.00300
C1411       C  0.42715575  0.87422832  0.95442937    -0.08800
C1412       C  0.42352629  0.92670372  0.95660430    -0.06200
C1413       C  0.38836322  0.94968827  0.95722481    -0.00300
C1414       C  0.35697513  0.92024038  0.94957698    -0.08700
C1415       C  0.32193233  0.94354412  0.93613434     0.61600
H1416       H  0.33528060  0.84489358  0.95117905     0.12300
H1417       H  0.44814789  0.94958396  0.95900638     0.12300
C1418       C  0.46419175  0.85189118  0.94520472     0.61900
F1419       F  0.29851886  0.90732025  0.92452429    -0.23300
F1420       F  0.33154012  0.97542714  0.91285369    -0.20600
F1421       F  0.30250208  0.97011531  0.95723392    -0.20300
F1422       F  0.45864187  0.82331018  0.91982298    -0.20400
F1423       F  0.47971828  0.82241195  0.96766745    -0.20700
F1424       F  0.48957363  0.88892887  0.93811670    -0.23400
C1425       C  0.59383680  0.93703493  0.39578873    -0.06200
C1426       C  0.60200045  0.88966455  0.40849931    -0.00300
C1427       C  0.60420222  0.84718738  0.38926986    -0.08800
C1428       C  0.60122713  0.85473191  0.35800434    -0.06200
C1429       C  0.59681506  0.90281218  0.34529522    -0.00300
C1430       C  0.59095311  0.94434316  0.36446914    -0.08700
C1431       C  0.58275273  0.99718046  0.35299413     0.61600
H1432       H  0.59164118  0.96932320  0.41036897     0.12300
H1433       H  0.60602372  0.82337771  0.34313004     0.12300
C1434       C  0.61289000  0.79432713  0.40081737     0.61900
F1435       F  0.55315295  0.01718121  0.36857427    -0.23300
F1436       F  0.57327633  0.99856840  0.32282211    -0.20600
F1437       F  0.61362088  0.02690066  0.35768578    -0.20300
F1438       F  0.59360032  0.78405298  0.42667579    -0.20400
F1439       F  0.65057777  0.78951923  0.40667656    -0.20700
F1440       F  0.60297610  0.75839888  0.37996183    -0.23400
C1441       C  0.70911874  0.02417578  0.46857201    -0.06200
C1442       C  0.68882750  0.01148775  0.49437481    -0.00300
C1443       C  0.69331760  0.04164661  0.52033436    -0.08800
C1444       C  0.72241603  0.07669927  0.52121442    -0.06200
C1445       C  0.74602075  0.08418594  0.49679414    -0.00300
C1446       C  0.73672832  0.06178380  0.46906572    -0.08700
C1447       C  0.75633628  0.07676301  0.44049436     0.61600
H1448       H  0.70402510  0.00322757  0.44823577     0.12300
H1449       H  0.72909707  0.09557787  0.54200263     0.12300
C1450       C  0.67051105  0.03352035  0.54822743     0.61900
F1451       F  0.74241561  0.05149645  0.41582657    -0.23300
F1452       F  0.79385683  0.06636498  0.44298088    -0.20600
F1453       F  0.75137598  0.12776514  0.43549331    -0.20300
F1454       F  0.67739630  0.98571179  0.55885464    -0.20400
F1455       F  0.63306538  0.03938905  0.54166324    -0.20700
F1456       F  0.67945416  0.06704653  0.57074510    -0.23400
C1457       C  0.76462356  0.83117217  0.55357919    -0.06200
C1458       C  0.73430704  0.79811026  0.55226705    -0.00300
C1459       C  0.73968052  0.74774667  0.56261445    -0.08800
C1460       C  0.77628405  0.72931435  0.56486619    -0.06200
C1461       C  0.80676658  0.76051638  0.55934279    -0.00300
C1462       C  0.80097979  0.81312538  0.55897028    -0.08700
C1463       C  0.83237612  0.84956016  0.56492118     0.61600
H1464       H  0.76000409  0.87081301  0.54907572     0.12300
H1465       H  0.78118727  0.68935390  0.56790850     0.12300
C1466       C  0.70783922  0.71268789  0.57016841     0.61900
F1467       F  0.81883496  0.89723657  0.57083628    -0.23300
F1468       F  0.85566470  0.85291207  0.54066355    -0.20600
F1469       F  0.85268058  0.83331554  0.58977371    -0.20300
F1470       F  0.68859160  0.69919405  0.54450721    -0.20400
F1471       F  0.68393804  0.73628284  0.58976659    -0.20700
F1472       F  0.72054254  0.66896899  0.58408275    -0.23400
C1473       C  0.48877110  0.79274361  0.54130048    -0.06200
C1474       C  0.50474931  0.81301235  0.51507712    -0.00300
C1475       C  0.48704564  0.80344280  0.48703664    -0.08800
C1476       C  0.45713071  0.76943101  0.48596391    -0.06200
C1477       C  0.44290659  0.74668662  0.51190200    -0.00300
C1478       C  0.45737654  0.76088043  0.54023037    -0.08700
C1479       C  0.44017429  0.74169542  0.56901860     0.61600
H1480       H  0.50168646  0.80117254  0.56271141     0.12300
H1481       H  0.44509498  0.75901619  0.46453755     0.12300
C1482       C  0.50051785  0.82699495  0.45808809     0.61900
F1483       F  0.46003540  0.75665576  0.59415421    -0.23300
F1484       F  0.43909248  0.68984975  0.56908924    -0.20600
F1485       F  0.40429554  0.76030360  0.57112284    -0.20300
F1486       F  0.53745986  0.81518515  0.45414691    -0.20400
F1487       F  0.49625890  0.87862226  0.45933404    -0.20700
F1488       F  0.48094839  0.81006440  0.43325980    -0.23400
C1489       C  0.67216906  0.61789583  0.47550057    -0.06200
C1490       C  0.63824601  0.59295229  0.47931643    -0.00300
C1491       C  0.60447789  0.62076468  0.47721229    -0.08800
C1492       C  0.60629288  0.67329762  0.47530870    -0.06200
C1493       C  0.64034907  0.69870156  0.47582872    -0.00300
C1494       C  0.67384875  0.67066108  0.47289641    -0.08700
C1495       C  0.71113466  0.69559787  0.46771578     0.61600
H1496       H  0.69757755  0.59573345  0.47592167     0.12300
H1497       H  0.58086868  0.69535925  0.47586899     0.12300
C1498       C  0.56669156  0.59610145  0.47976405     0.61900
F1499       F  0.73890406  0.66061379  0.46229873    -0.23300
F1500       F  0.72172774  0.72304207  0.49249453    -0.20600
F1501       F  0.70848233  0.72713527  0.44292255    -0.20300
F1502       F  0.56453775  0.57139717  0.50698679    -0.20400
F1503       F  0.56165414  0.56233303  0.45671094    -0.20700
F1504       F  0.53775802  0.63073689  0.47820088    -0.23400
C1505       C  0.68768035  0.85349449  0.86451723    -0.06200
C1506       C  0.68520167  0.89799263  0.84735360    -0.00300
C1507       C  0.68714290  0.94490774  0.86199760    -0.08800
C1508       C  0.68632223  0.94542714  0.89358340    -0.06200
C1509       C  0.68365718  0.90086185  0.91063466    -0.00300
C1510       C  0.68649587  0.85386939  0.89603082    -0.08700
C1511       C  0.68472949  0.80424353  0.91310015     0.61600
H1512       H  0.68708394  0.81798835  0.85282298     0.12300
H1513       H  0.68515712  0.98098862  0.90522163     0.12300
C1514       C  0.68765796  0.99414439  0.84453829     0.61900
F1515       F  0.68779752  0.76336423  0.89424159    -0.23300
F1516       F  0.65112513  0.80075791  0.92772267    -0.20600
F1517       F  0.71359794  0.80112385  0.93380499    -0.20300
F1518       F  0.65548209  0.99938136  0.82746454    -0.20400
F1519       F  0.71817840  0.99478691  0.82593328    -0.20700
F1520       F  0.69007343  0.03518654  0.86332152    -0.23400
C1521       C  0.77914665  0.78660753  0.71511389    -0.06200
C1522       C  0.76421027  0.80975087  0.74073252    -0.00300
C1523       C  0.78143429  0.80012934  0.76911325    -0.08800
C1524       C  0.81194199  0.76660089  0.77083801    -0.06200
C1525       C  0.82591629  0.74218348  0.74550029    -0.00300
C1526       C  0.80990596  0.75307684  0.71699080    -0.08700
C1527       C  0.82422473  0.72766446  0.68899856     0.61600
H1528       H  0.76570040  0.79381287  0.69362457     0.12300
H1529       H  0.82446399  0.75748610  0.79244393     0.12300
C1530       C  0.76648837  0.82246816  0.79789507     0.61900
F1531       F  0.80356730  0.74113113  0.66373312    -0.23300
F1532       F  0.82253929  0.67600385  0.69237884    -0.20600
F1533       F  0.86071989  0.74140878  0.68431536    -0.20300
F1534       F  0.72941558  0.81044726  0.80101613    -0.20400
F1535       F  0.77024058  0.87412539  0.79711500    -0.20700
F1536       F  0.78535666  0.80445764  0.82308396    -0.23400
C1537       C  0.59333269  0.68315454  0.77633768    -0.06200
C1538       C  0.62839302  0.70326339  0.78290602    -0.00300
C1539       C  0.65815661  0.67093978  0.79126360    -0.08800
C1540       C  0.65275565  0.61891558  0.78952006    -0.06200
C1541       C  0.61921186  0.59865774  0.77865749    -0.00300
C1542       C  0.58808088  0.63109128  0.77382539    -0.08700
C1543       C  0.55000137  0.61204609  0.76444665     0.61600
H1544       H  0.57079815  0.70873244  0.77030461     0.12300
H1545       H  0.67600963  0.59389329  0.79426123     0.12300
C1546       C  0.69549496  0.69109949  0.80165341     0.61900
F1547       F  0.52264700  0.64832658  0.76819117    -0.23300
F1548       F  0.54054991  0.57064169  0.78161124    -0.20600
F1549       F  0.55029968  0.59916508  0.73450323    -0.20300
F1550       F  0.69012448  0.72444517  0.82485460    -0.20400
F1551       F  0.71305188  0.71525304  0.77826336    -0.20700
F1552       F  0.71895694  0.65307104  0.81200553    -0.23400
C1553       C  0.46644580  0.83365428  0.71364147    -0.06200
C1554       C  0.46222095  0.78362627  0.70477609    -0.00300
C1555       C  0.49338931  0.75681642  0.69431613    -0.08800
C1556       C  0.52876600  0.77547686  0.70075148    -0.06200
C1557       C  0.53329747  0.82106317  0.71606135    -0.00300
C1558       C  0.50191640  0.85333116  0.71934022    -0.08700
C1559       C  0.50499020  0.90654410  0.73091870     0.61600
H1560       H  0.44207454  0.85479479  0.72031495     0.12300
H1561       H  0.55273085  0.75228907  0.69562168     0.12300
C1562       C  0.49040356  0.70710948  0.67821079     0.61900
F1563       F  0.47237008  0.93357447  0.72606797    -0.23300
F1564       F  0.53324021  0.93154501  0.71635331    -0.20600
F1565       F  0.51225067  0.90522872  0.76138110    -0.20300
F1566       F  0.50575666  0.66925606  0.69596044    -0.20400
F1567       F  0.45392058  0.69518138  0.67131217    -0.20700
F1568       F  0.50979115  0.70989372  0.65161355    -0.23400
C1569       C  0.66011892  0.92004628  0.60613646    -0.06200
C1570       C  0.62204315  0.92042929  0.59823576    -0.00300
C1571       C  0.59532008  0.92671091  0.62077255    -0.08800
C1572       C  0.60760320  0.92738457  0.65090624    -0.06200
C1573       C  0.64566818  0.92340602  0.65876027    -0.00300
C1574       C  0.67244677  0.92326571  0.63602378    -0.08700
C1575       C  0.71369053  0.92153777  0.64349529     0.61600
H1576       H  0.68024821  0.91184961  0.58894706     0.12300
H1577       H  0.58731516  0.92574974  0.66864371     0.12300
C1578       C  0.55412715  0.92707422  0.61316967     0.61900
F1579       F  0.73514996  0.92407301  0.61792832    -0.23300
F1580       F  0.72251260  0.87738976  0.65868281    -0.20600
F1581       F  0.72265617  0.96200477  0.66137840    -0.20300
F1582       F  0.54405076  0.88124071  0.60125537    -0.20400
F1583       F  0.54648773  0.96468206  0.59232189    -0.20700
F1584       F  0.53269369  0.93578541  0.63823602    -0.23400
C1585       C  0.56196933  0.02270041  0.79255994    -0.06200
C1586       C  0.58450604  0.01454824  0.76725265    -0.00300
C1587       C  0.57906475  0.04641842  0.74169092    -0.08800
C1588       C  0.54730430  0.07776983  0.74040454    -0.06200
C1589       C  0.52259338  0.08116509  0.76439640    -0.00300
C1590       C  0.53191051  0.05725572  0.79185206    -0.08700
C1591       C  0.51021840  0.06865277  0.82006835     0.61600
H1592       H  0.56755317  0.00097079  0.81280684     0.12300
H1593       H  0.53991977  0.09724665  0.71968677     0.12300
C1594       C  0.60490343  0.04570777  0.71503537     0.61900
F1595       F  0.52110538  0.03775967  0.84378711    -0.23300
F1596       F  0.47248446  0.06270688  0.81537215    -0.20600
F1597       F  0.51649289  0.11795239  0.82807154    -0.20300
F1598       F  0.60322559  0.99953308  0.70134568    -0.20400
F1599       F  0.64095906  0.05494384  0.72449386    -0.20700
F1600       F  0.59540003  0.08208963  0.69382723    -0.23400
C1601       C  0.09049717  0.44677029  0.39481184    -0.06200
C1602       C  0.08713720  0.39920992  0.40790624    -0.00300
C1603       C  0.08287249  0.35677010  0.38915461    -0.08800
C1604       C  0.08765189  0.36257418  0.35796024    -0.06200
C1605       C  0.09612044  0.40947814  0.34509505    -0.00300
C1606       C  0.09558710  0.45284898  0.36375044    -0.08700
C1607       C  0.10203946  0.50549463  0.35166319     0.61600
H1608       H  0.09311555  0.47882672  0.40946624     0.12300
H1609       H  0.08730838  0.32964032  0.34384285     0.12300
C1610       C  0.07612396  0.30464104  0.40194298     0.61900
F1611       F  0.09160040  0.54189432  0.37199975    -0.23300
F1612       F  0.08114053  0.51296613  0.32589493    -0.20600
F1613       F  0.13930471  0.51205279  0.34555118    -0.20300
F1614       F  0.05537347  0.30724191  0.42784468    -0.20400
F1615       F  0.10977162  0.28125775  0.40840654    -0.20700
F1616       F  0.05666787  0.27561417  0.38156511    -0.23400
C1617       C  0.99139168  0.30755329  0.48889506    -0.06200
C1618       C  0.00403015  0.31894665  0.51799334    -0.00300
C1619       C  0.98574212  0.29693785  0.54296316    -0.08800
C1620       C  0.95722403  0.26176393  0.53776677    -0.06200
C1621       C  0.94673560  0.24765343  0.50866471    -0.00300
C1622       C  0.96346644  0.27159545  0.48376535    -0.08700
C1623       C  0.95210324  0.25866558  0.45187735     0.61600
H1624       H  0.00529768  0.32462202  0.47002451     0.12300
H1625       H  0.94442213  0.24276082  0.55653005     0.12300
C1626       C  0.99664676  0.30919161  0.57506303     0.61900
F1627       F  0.96932996  0.28913355  0.43096276    -0.23300
F1628       F  0.91410106  0.26490603  0.44845300    -0.20600
F1629       F  0.96163658  0.20935871  0.44587758    -0.20300
F1630       F  0.00178148  0.36039976  0.57803910    -0.20400
F1631       F  0.02916153  0.28400831  0.58286734    -0.20700
F1632       F  0.96934580  0.29486949  0.59499245    -0.23400
C1633       C  0.15576461  0.12534419  0.46885420    -0.06200
C1634       C  0.12263314  0.10049273  0.47567401    -0.00300
C1635       C  0.08935354  0.12873331  0.47891465    -0.08800
C1636       C  0.09150495  0.18133588  0.47878143    -0.06200
C1637       C  0.12558829  0.20618029  0.47597734    -0.00300
C1638       C  0.15791494  0.17807417  0.46843084    -0.08700
C1639       C  0.19481866  0.20261324  0.46097704     0.61600
H1640       H  0.18059964  0.10284508  0.46564324     0.12300
H1641       H  0.06683254  0.20353977  0.48319699     0.12300
C1642       C  0.05245286  0.10411241  0.48566379     0.61900
F1643       F  0.22165430  0.16752986  0.45334281    -0.23300
F1644       F  0.20830953  0.22895608  0.48529682    -0.20600
F1645       F  0.18992199  0.23498385  0.43676730    -0.20300
F1646       F  0.05540169  0.07857540  0.51257921    -0.20400
F1647       F  0.04306238  0.07108648  0.46309710    -0.20700
F1648       F  0.02377451  0.13884214  0.48805427    -0.23400
C1649       C  0.19005015  0.54031933  0.51341061    -0.06200
C1650       C  0.18519502  0.51361161  0.48662470    -0.00300
C1651       C  0.20675002  0.52736066  0.46131261    -0.08800
C1652       C  0.23638257  0.56127483  0.46528240    -0.06200
C1653       C  0.24428901  0.58232968  0.49333845    -0.00300
C1654       C  0.21876324  0.57534688  0.51692179    -0.08700
C1655       C  0.22162627  0.60280176  0.54649320     0.61600
H1656       H  0.17246116  0.53205927  0.53239919     0.12300
H1657       H  0.25547226  0.56789937  0.44715572     0.12300
C1658       C  0.19883667  0.50651781  0.43031266     0.61900
F1659       F  0.18747494  0.62403882  0.55308170    -0.23300
F1660       F  0.24743327  0.64102717  0.54577046    -0.20600
F1661       F  0.23141482  0.56920734  0.56907436    -0.20300
F1662       F  0.16118046  0.51015196  0.42396313    -0.20400
F1663       F  0.20999928  0.45681612  0.42890851    -0.20700
F1664       F  0.21748093  0.53303835  0.40831518    -0.23400
C1665       C  0.18972795  0.43993211  0.85685266    -0.06200
C1666       C  0.19013083  0.39172391  0.84447821    -0.00300
C1667       C  0.19406116  0.34945426  0.86401901    -0.08800
C1668       C  0.19199246  0.35665544  0.89529022    -0.06200
C1669       C  0.18689637  0.40464360  0.90752236    -0.00300
C1670       C  0.18841951  0.44733803  0.88805118    -0.08700
C1671       C  0.18630259  0.50141485  0.89860257     0.61600
H1672       H  0.18732662  0.47228802  0.84196633     0.12300
H1673       H  0.19113516  0.32413628  0.91008010     0.12300
C1674       C  0.19668479  0.29613773  0.85242297     0.61900
F1675       F  0.21287280  0.52964919  0.88402501    -0.23300
F1676       F  0.19275345  0.50609188  0.92904452    -0.20600
F1677       F  0.15152690  0.52109743  0.89164223    -0.20300
F1678       F  0.21411187  0.29479612  0.82490496    -0.20400
F1679       F  0.16136234  0.27643414  0.84955406    -0.20700
F1680       F  0.21715208  0.26611635  0.87216958    -0.23400
C1681       C  0.08432244  0.54665824  0.74804306    -0.06200
C1682       C  0.08969372  0.51610249  0.77367003    -0.00300
C1683       C  0.06580692  0.52323626  0.79859188    -0.08800
C1684       C  0.03357998  0.55308518  0.79470910    -0.06200
C1685       C  0.02545330  0.57720310  0.76736287    -0.00300
C1686       C  0.05220388  0.57680648  0.74436429    -0.08700
C1687       C  0.04542779  0.60548086  0.71523346     0.61600
H1688       H  0.10345773  0.54315572  0.72962125     0.12300
H1689       H  0.01300857  0.55393630  0.81217542     0.12300
C1690       C  0.07256056  0.49768228  0.82877998     0.61900
F1691       F  0.03564602  0.65467845  0.72138085    -0.23300
F1692       F  0.07677229  0.60607351  0.69749669    -0.20600
F1693       F  0.01700193  0.58331744  0.69916822    -0.20300
F1694       F  0.11013260  0.49723610  0.83579470    -0.20400
F1695       F  0.05948573  0.44896932  0.82810278    -0.20700
F1696       F  0.05440002  0.52292989  0.85144704    -0.23400
C1697       C  0.28985367  0.32152459  0.74623056    -0.06200
C1698       C  0.26073405  0.31007198  0.72596054    -0.00300
C1699       C  0.26565501  0.26774782  0.70672755    -0.08800
C1700       C  0.29581830  0.23465496  0.71220778    -0.06200
C1701       C  0.32274504  0.24392699  0.73423744    -0.00300
C1702       C  0.32141886  0.28985667  0.74998498    -0.08700
C1703       C  0.35326057  0.30529556  0.77044136     0.61600
H1704       H  0.28738240  0.35494124  0.75976653     0.12300
H1705       H  0.29812565  0.20003117  0.69975038     0.12300
C1706       C  0.23933196  0.25566060  0.68086486     0.61900
F1707       F  0.34630268  0.35091682  0.78408693    -0.23300
F1708       F  0.38522234  0.30999702  0.75371894    -0.20600
F1709       F  0.35926594  0.26956719  0.79265520    -0.20300
F1710       F  0.23203220  0.29845333  0.66385055    -0.20400
F1711       F  0.20658039  0.23629567  0.69187151    -0.20700
F1712       F  0.25453496  0.22039607  0.66179381    -0.23400
C1713       C  0.09951545  0.12538239  0.77549009    -0.06200
C1714       C  0.13364377  0.09942066  0.77464480    -0.00300
C1715       C  0.16733261  0.12677298  0.77636889    -0.08800
C1716       C  0.16545612  0.17951343  0.77580900    -0.06200
C1717       C  0.13141491  0.20536800  0.77374755    -0.00300
C1718       C  0.09769139  0.17821402  0.77524973    -0.08700
C1719       C  0.05999244  0.20441166  0.77469253     0.61600
H1720       H  0.07413474  0.10374147  0.77469301     0.12300
H1721       H  0.19079882  0.20123280  0.77518911     0.12300
C1722       C  0.20519223  0.10108064  0.77636465     0.61900
F1723       F  0.03094209  0.17057505  0.77548315    -0.23300
F1724       F  0.05610247  0.23281806  0.74875830    -0.20600
F1725       F  0.05692795  0.23526377  0.79936494    -0.20300
F1726       F  0.20927580  0.07436885  0.75019202    -0.20400
F1727       F  0.20852738  0.06889598  0.80079188    -0.20700
F1728       F  0.23400911  0.13520889  0.77807618    -0.23400
C1729       C  0.17252020  0.44162848  0.63541840    -0.06200
C1730       C  0.14454997  0.44330668  0.65686196    -0.00300
C1731       C  0.10715530  0.45125192  0.64698804    -0.08800
C1732       C  0.09837374  0.44873311  0.61614889    -0.06200
C1733       C  0.12588399  0.43892701  0.59503997    -0.00300
C1734       C  0.16387180  0.43944851  0.60456616    -0.08700
C1735       C  0.19629589  0.43306819  0.58350538     0.61600
H1736       H  0.20110350  0.43603051  0.64282944     0.12300
H1737       H  0.06944618  0.44917503  0.60899634     0.12300
C1738       C  0.07524207  0.45821916  0.66840266     0.61900
F1739       F  0.22188331  0.47063326  0.58861547    -0.23300
F1740       F  0.18578992  0.43564520  0.55362149    -0.20600
F1741       F  0.21324598  0.38714236  0.58926320    -0.20300
F1742       F  0.05487370  0.50050866  0.66006182    -0.20400
F1743       F  0.08743147  0.46449815  0.69761086    -0.20700
F1744       F  0.05235716  0.41674615  0.66715950    -0.23400
C1745       C  0.44726777  0.11177058  0.60516140    -0.06200
C1746       C  0.43982501  0.16107928  0.59531634    -0.00300
C1747       C  0.43807235  0.20005810  0.61726280    -0.08800
C1748       C  0.43726637  0.18679247  0.64783980    -0.06200
C1749       C  0.44068503  0.13694195  0.65744621    -0.00300
C1750       C  0.44908412  0.09925129  0.63597394    -0.08700
C1751       C  0.46085614  0.04628910  0.64520763     0.61600
H1752       H  0.45052619  0.08257112  0.58860868     0.12300
H1753       H  0.43229761  0.21541315  0.66448321     0.12300
C1754       C  0.43692842  0.25580313  0.60927741     0.61900
F1755       F  0.47847815  0.02179683  0.62198430    -0.23300
F1756       F  0.43015948  0.01845586  0.65317605    -0.20600
F1757       F  0.48565459  0.04799699  0.66916161    -0.20300
F1758       F  0.44538669  0.28525115  0.63387095    -0.20400
F1759       F  0.40175020  0.26947535  0.59917610    -0.20700
F1760       F  0.46290266  0.26638663  0.58750585    -0.23400
C1761       C  0.27556838  0.01396302  0.53975638    -0.06200
C1762       C  0.26168711  0.98718834  0.51486426    -0.00300
C1763       C  0.28233382  0.98894490  0.48769767    -0.08800
C1764       C  0.31382606  0.02041868  0.48596616    -0.06200
C1765       C  0.32581190  0.04976858  0.51016509    -0.00300
C1766       C  0.30760123  0.04454589  0.53795403    -0.08700
C1767       C  0.32190010  0.07186450  0.56540585     0.61600
H1768       H  0.26054393  0.01168225  0.56063145     0.12300
H1769       H  0.32877154  0.02386178  0.46514384     0.12300
C1770       C  0.27025226  0.96047481  0.45987731     0.61900
F1771       F  0.29974666  0.06352708  0.59008549    -0.23300
F1772       F  0.32278465  0.12302220  0.55986770    -0.20600
F1773       F  0.35748408  0.05500815  0.57231991    -0.20300
F1774       F  0.23481582  0.97548425  0.45141075    -0.20400
F1775       F  0.27077424  0.90934879  0.46574529    -0.20700
F1776       F  0.29342770  0.96926068  0.43581650    -0.23400
C1777       C  0.52951066  0.24685572  0.46313670    -0.06200
C1778       C  0.52341996  0.22043103  0.48990894    -0.00300
C1779       C  0.55124628  0.22108086  0.51262261    -0.08800
C1780       C  0.58223682  0.25287129  0.50925691    -0.06200
C1781       C  0.58591299  0.28500584  0.48419882    -0.00300
C1782       C  0.56031790  0.27908764  0.45963681    -0.08700
C1783       C  0.56398899  0.30740314  0.43003255     0.61600
H1784       H  0.50812466  0.24549414  0.44584688     0.12300
H1785       H  0.60238279  0.25542864  0.52739181     0.12300
C1786       C  0.54750225  0.18902507  0.54071412     0.61900
F1787       F  0.54190249  0.28671451  0.40773905    -0.23300
F1788       F  0.60027771  0.30532018  0.42034507    -0.20600
F1789       F  0.55320819  0.35697393  0.43335534    -0.20300
F1790       F  0.54149436  0.13961069  0.53270608    -0.20400
F1791       F  0.51790918  0.20582382  0.55747807    -0.20700
F1792       F  0.57922422  0.19050247  0.55856994    -0.23400
C1793       C  0.41173532  0.42974475  0.45211087    -0.06200
C1794       C  0.37703586  0.45234547  0.45774229    -0.00300
C1795       C  0.34469529  0.42231516  0.45502850    -0.08800
C1796       C  0.34878297  0.36977508  0.45557718    -0.06200
C1797       C  0.38408165  0.34691510  0.45604154    -0.00300
C1798       C  0.41543975  0.37711022  0.44977812    -0.08700
C1799       C  0.45172766  0.35427515  0.43906665     0.61600
H1800       H  0.43635299  0.45287817  0.45156728     0.12300
H1801       H  0.32420946  0.34680488  0.45791179     0.12300
C1802       C  0.30560277  0.44373890  0.45278115     0.61900
F1803       F  0.47018714  0.32900756  0.46192561    -0.23300
F1804       F  0.47522021  0.39084547  0.42802286    -0.20600
F1805       F  0.44436363  0.32093181  0.41617012    -0.20300
F1806       F  0.28828551  0.43918472  0.48021527    -0.20400
F1807       F  0.28543230  0.41737240  0.43157052    -0.20700
F1808       F  0.30548756  0.49360047  0.44376560    -0.23400
C1809       C  0.27517219  0.24279550  0.55475116    -0.06200
C1810       C  0.30442067  0.27403980  0.54623206    -0.00300
C1811       C  0.29789566  0.32643378  0.54380284    -0.08800
C1812       C  0.26107611  0.34270166  0.53998062    -0.06200
C1813       C  0.23142803  0.30899846  0.54214255    -0.00300
C1814       C  0.23833231  0.26001733  0.55413522    -0.08700
C1815       C  0.20780089  0.22534314  0.56506704     0.61600
H1816       H  0.28107771  0.20293424  0.55917795     0.12300
H1817       H  0.25527763  0.38206817  0.53387097     0.12300
C1818       C  0.32901776  0.36450190  0.54508668     0.61900
F1819       F  0.18607578  0.20920478  0.54131758    -0.23300
F1820       F  0.18583604  0.25047281  0.58543853    -0.20600
F1821       F  0.22236645  0.18316417  0.57952716    -0.20300
F1822       F  0.35002545  0.36282926  0.51947669    -0.20400
F1823       F  0.35156731  0.35422061  0.56976948    -0.20700
F1824       F  0.31527371  0.41298771  0.54790117    -0.23400
C1825       C  0.33170556  0.11527908  0.14683568    -0.06200
C1826       C  0.33916311  0.16518645  0.15470009    -0.00300
C1827       C  0.33858798  0.20291443  0.13160515    -0.08800
C1828       C  0.33500126  0.18799163  0.10148246    -0.06200
C1829       C  0.33161342  0.13745655  0.09364758    -0.00300
C1830       C  0.32738359  0.10072082  0.11674561    -0.08700
C1831       C  0.31948489  0.04583047  0.11013590     0.61600
H1832       H  0.33093670  0.08690331  0.16437090     0.12300
H1833       H  0.33737852  0.21559583  0.08363149     0.12300
C1834       C  0.34265571  0.25874944  0.13792314     0.61900
F1835       F  0.30462608  0.02155835  0.13481573    -0.23300
F1836       F  0.35212891  0.02133990  0.10273196    -0.20600
F1837       F  0.29402629  0.04199271  0.08675492    -0.20300
F1838       F  0.37886285  0.26886682  0.14661015    -0.20400
F1839       F  0.31839804  0.27311393  0.16018764    -0.20700
F1840       F  0.33451166  0.28802585  0.11280925    -0.23400
C1841       C  0.25085232  0.24615273  0.28686857    -0.06200
C1842       C  0.25625772  0.22203026  0.25944804    -0.00300
C1843       C  0.22867093  0.22675624  0.23662575    -0.08800
C1844       C  0.19889670  0.26071430  0.24058812    -0.06200
C1845       C  0.19607084  0.29007830  0.26655877    -0.00300
C1846       C  0.22089586  0.27985827  0.29103163    -0.08700
C1847       C  0.21671223  0.30501701  0.32125115     0.61600
H1848       H  0.27215439  0.24201907  0.30413959     0.12300
H1849       H  0.17927504  0.26733066  0.22232021     0.12300
C1850       C  0.23155662  0.19730882  0.20771176     0.61900
F1851       F  0.23759599  0.28057335  0.34331994    -0.23300
F1852       F  0.17988754  0.30418365  0.32987589    -0.20600
F1853       F  0.22860461  0.35415189  0.31957278    -0.20300
F1854       F  0.23817421  0.14711763  0.21435599    -0.20400
F1855       F  0.26030982  0.21548362  0.19053441    -0.20700
F1856       F  0.19908695  0.20066133  0.19077830    -0.23400
C1857       C  0.41834910  0.42401048  0.30303221    -0.06200
C1858       C  0.38477525  0.45002164  0.29733849    -0.00300
C1859       C  0.35090811  0.42340583  0.29998396    -0.08800
C1860       C  0.35242191  0.37058530  0.29978507    -0.06200
C1861       C  0.38651172  0.34450177  0.29833555    -0.00300
C1862       C  0.41967632  0.37119706  0.30472988    -0.08700
C1863       C  0.45672289  0.34514116  0.31087664     0.61600
H1864       H  0.44406449  0.44497206  0.30353313     0.12300
H1865       H  0.32684147  0.34959950  0.29761871     0.12300
C1866       C  0.31333642  0.44964229  0.30114682     0.61900
F1867       F  0.48232537  0.37799302  0.32302961    -0.23300
F1868       F  0.47133439  0.32638127  0.28466898    -0.20600
F1869       F  0.45198443  0.30635315  0.33133162    -0.20300
F1870       F  0.30433522  0.47071333  0.27353460    -0.20400
F1871       F  0.31421943  0.48664744  0.32276297    -0.20700
F1872       F  0.28543940  0.41655497  0.30868965    -0.23400
C1873       C  0.51355719  0.02825804  0.21187691    -0.06200
C1874       C  0.51448385  0.98455210  0.23006378    -0.00300
C1875       C  0.48386264  0.97558252  0.24942813    -0.08800
C1876       C  0.45507066  0.01216412  0.25100619    -0.06200
C1877       C  0.45649139  0.05761448  0.23480464    -0.00300
C1878       C  0.48586619  0.06546506  0.21457460    -0.08700
C1879       C  0.48970525  0.11482883  0.19763066     0.61600
H1880       H  0.53633514  0.03526730  0.19683588     0.12300
H1881       H  0.43241416  0.00711013  0.26650841     0.12300
C1882       C  0.48166999  0.92874919  0.26904873     0.61900
F1883       F  0.51602924  0.11185077  0.17528198    -0.23300
F1884       F  0.50070256  0.15152846  0.21750684    -0.20600
F1885       F  0.45611927  0.12855034  0.18435523    -0.20300
F1886       F  0.50892925  0.92998292  0.29118280    -0.20400
F1887       F  0.48632860  0.88634612  0.25169569    -0.20700
F1888       F  0.44763580  0.92500090  0.28306461    -0.23400
C1889       C  0.35649836  0.12303078  0.35816668    -0.06200
C1890       C  0.38973724  0.12138900  0.34237640    -0.00300
C1891       C  0.42374373  0.11379173  0.35846418    -0.08800
C1892       C  0.42388220  0.11670061  0.39001170    -0.06200
C1893       C  0.39099333  0.12506684  0.40574470    -0.00300
C1894       C  0.35636931  0.12464890  0.38970493    -0.08700
C1895       C  0.31913020  0.12819388  0.40532252     0.61600
H1896       H  0.33072895  0.12787903  0.34559331     0.12300
H1897       H  0.45011660  0.11518335  0.40223675     0.12300
C1898       C  0.46057661  0.10366092  0.34338121     0.61900
F1899       F  0.29007074  0.11492842  0.38640656    -0.23300
F1900       F  0.31268083  0.17680265  0.41468267    -0.20600
F1901       F  0.31876166  0.09586537  0.42968633    -0.20300
F1902       F  0.48341666  0.14484190  0.34674208    -0.20400
F1903       F  0.45647862  0.09342709  0.31320376    -0.20700
F1904       F  0.47758364  0.06224402  0.35678658    -0.23400
C1905       C  0.69593753  0.44593612  0.39639949    -0.06200
C1906       C  0.69371298  0.40125059  0.41346878    -0.00300
C1907       C  0.69755762  0.35466258  0.39859582    -0.08800
C1908       C  0.69612678  0.35444098  0.36694361    -0.06200
C1909       C  0.69283972  0.39909622  0.34984545    -0.00300
C1910       C  0.69647521  0.44576965  0.36473847    -0.08700
C1911       C  0.69953337  0.49525608  0.34768799     0.61600
H1912       H  0.69494348  0.48139113  0.40812657     0.12300
H1913       H  0.69558358  0.31894035  0.35526503     0.12300
C1914       C  0.70199489  0.30536171  0.41574787     0.61900
F1915       F  0.66774292  0.50426719  0.33073254    -0.23300
F1916       F  0.72998329  0.49337880  0.32903049    -0.20600
F1917       F  0.70428608  0.53547781  0.36682749    -0.20300
F1918       F  0.67106327  0.29619075  0.43294032    -0.20400
F1919       F  0.73304839  0.30772384  0.43426372    -0.20700
F1920       F  0.70665184  0.26504966  0.39668195    -0.23400
C1921       C  0.58010085  0.54031164  0.24840514    -0.06200
C1922       C  0.58368187  0.50838363  0.27368433    -0.00300
C1923       C  0.55737935  0.51343314  0.29727527    -0.08800
C1924       C  0.52700455  0.54685780  0.29331162    -0.06200
C1925       C  0.52151686  0.57408496  0.26660902    -0.00300
C1926       C  0.54901365  0.57225482  0.24416642    -0.08700
C1927       C  0.54430900  0.60182677  0.21502073     0.61600
H1928       H  0.60018995  0.53701687  0.23059964     0.12300
H1929       H  0.50519151  0.54810024  0.30987866     0.12300
C1930       C  0.55928694  0.48174040  0.32579882     0.61900
F1931       F  0.57640525  0.60102207  0.19816643    -0.23300
F1932       F  0.53576161  0.65140709  0.22123280    -0.20600
F1933       F  0.51595106  0.58157454  0.19788718    -0.20300
F1934       F  0.59495595  0.48165387  0.33765579    -0.20400
F1935       F  0.54873979  0.43305855  0.31955235    -0.20700
F1936       F  0.53577694  0.50011127  0.34758490    -0.23400
C1937       C  0.80820705  0.26297837  0.26913394    -0.06200
C1938       C  0.82735430  0.24752774  0.24354688    -0.00300
C1939       C  0.81952534  0.27204958  0.21577242    -0.08800
C1940       C  0.79099586  0.30914631  0.21448869    -0.06200
C1941       C  0.77168954  0.32424041  0.24029964    -0.00300
C1942       C  0.78180253  0.30223672  0.26838633    -0.08700
C1943       C  0.76341476  0.31792771  0.29739002     0.61600
H1944       H  0.81334548  0.24273402  0.28991049     0.12300
H1945       H  0.78288184  0.32590289  0.19312406     0.12300
C1946       C  0.83981906  0.25732694  0.18748524     0.61900
F1947       F  0.77734805  0.29152971  0.32202415    -0.23300
F1948       F  0.72571613  0.30920902  0.29551164    -0.20600
F1949       F  0.76952662  0.36845427  0.30232696    -0.20300
F1950       F  0.83672835  0.20617550  0.18294904    -0.20400
F1951       F  0.87698802  0.26954259  0.19029832    -0.20700
F1952       F  0.82549177  0.28196955  0.16236080    -0.23400
C1953       C  0.65237826  0.11899667  0.29067017    -0.06200
C1954       C  0.64356129  0.09765566  0.26258255    -0.00300
C1955       C  0.63925166  0.13004074  0.23701056    -0.08800
C1956       C  0.64334813  0.18162724  0.24082021    -0.06200
C1957       C  0.65000844  0.20304660  0.26872236    -0.00300
C1958       C  0.65543708  0.17177535  0.29418184    -0.08700
C1959       C  0.66585589  0.19410771  0.32421175     0.61600
H1960       H  0.65647317  0.09415728  0.30982100     0.12300
H1961       H  0.64154351  0.20650463  0.22155872     0.12300
C1962       C  0.63165431  0.11161124  0.20523037     0.61900
F1963       F  0.67304425  0.15724130  0.34566175    -0.23300
F1964       F  0.63712229  0.22424655  0.33414928    -0.20600
F1965       F  0.69748945  0.22284387  0.32123483    -0.20300
F1966       F  0.59670383  0.09060152  0.20338698    -0.20400
F1967       F  0.65840647  0.07709390  0.19733401    -0.20700
F1968       F  0.63277133  0.14989277  0.18401265    -0.23400
C1969       C  0.51506206  0.35658864  0.22077421    -0.06200
C1970       C  0.54438083  0.32332456  0.21399659    -0.00300
C1971       C  0.53638267  0.28213223  0.19486811    -0.08800
C1972       C  0.49934488  0.26646281  0.19252882    -0.06200
C1973       C  0.47072064  0.29385541  0.20576517    -0.00300
C1974       C  0.47789560  0.34352127  0.21497074    -0.08700
C1975       C  0.44702639  0.38223464  0.21789090     0.61600
H1976       H  0.52118419  0.39173854  0.23175763     0.12300
H1977       H  0.49298342  0.23027317  0.18293086     0.12300
C1978       C  0.56571513  0.25065066  0.17976510     0.61900
F1979       F  0.46094799  0.42942007  0.22411832    -0.23300
F1980       F  0.42308362  0.36927916  0.24044504    -0.20600
F1981       F  0.42727454  0.38525032  0.19111575    -0.20300
F1982       F  0.58051533  0.21720221  0.20047036    -0.20400
F1983       F  0.59326460  0.28064460  0.16792465    -0.20700
F1984       F  0.55061556  0.22361140  0.15622255    -0.23400
C1985       C  0.57416230  0.44297318  0.89939961    -0.06200
C1986       C  0.57772227  0.39513914  0.91262101    -0.00300
C1987       C  0.57645984  0.35236526  0.89361134    -0.08800
C1988       C  0.57768099  0.35910658  0.86225745    -0.06200
C1989       C  0.57886279  0.40704451  0.84911229    -0.00300
C1990       C  0.57452908  0.44975031  0.86789687    -0.08700
C1991       C  0.57177829  0.50268611  0.85505143     0.61600
H1992       H  0.57459567  0.47547317  0.91385555     0.12300
H1993       H  0.58005792  0.32639191  0.84805656     0.12300
C1994       C  0.57512038  0.29877940  0.90525391     0.61900
F1995       F  0.55775888  0.53599324  0.87585348    -0.23300
F1996       F  0.54814805  0.50341873  0.83034751    -0.20600
F1997       F  0.60653457  0.51926984  0.84673331    -0.20300
F1998       F  0.56712444  0.29653958  0.93539199    -0.20400
F1999       F  0.60892834  0.27525468  0.90042036    -0.20700
F2000       F  0.54754124  0.27291278  0.89013261    -0.23400
C2001       C  0.66408419  0.41777304  0.10834451    -0.06200
C2002       C  0.62678676  0.42952634  0.10086827    -0.00300
C2003       C  0.60465409  0.45332317  0.12273610    -0.08800
C2004       C  0.61937955  0.45803491  0.15231255    -0.06200
C2005       C  0.65571447  0.44145626  0.16000935    -0.00300
C2006       C  0.67930494  0.42533847  0.13691264    -0.08700
C2007       C  0.71966772  0.41004546  0.14186462     0.61600
H2008       H  0.68137756  0.39883089  0.09214612     0.12300
H2009       H  0.60140461  0.47002823  0.17028159     0.12300
C2010       C  0.56521035  0.47014196  0.11556245     0.61900
F2011       F  0.74137049  0.43394496  0.12071458    -0.23300
F2012       F  0.72333634  0.35862579  0.13843314    -0.20600
F2013       F  0.73308959  0.42292963  0.16990024    -0.20300
F2014       F  0.54422459  0.42950387  0.10658881    -0.20400
F2015       F  0.56561289  0.50561691  0.09269589    -0.20700
F2016       F  0.54830579  0.49158734  0.14016839    -0.23400
C2017       C  0.46303612  0.24121394  0.04246207    -0.06200
C2018       C  0.44141793  0.24547937  0.01632100    -0.00300
C2019       C  0.44558485  0.28807272  0.99748450    -0.08800
C2020       C  0.47519901  0.32143772  0.00313737    -0.06200
C2021       C  0.49967007  0.31443479  0.02775262    -0.00300
C2022       C  0.49125762  0.27591677  0.04925615    -0.08700
C2023       C  0.51170470  0.27005798  0.07921487     0.61600
H2024       H  0.45845202  0.20925888  0.05712612     0.12300
H2025       H  0.48044984  0.35174409  0.98744447     0.12300
C2026       C  0.41897109  0.29769635  0.97142102     0.61900
F2027       F  0.49225934  0.23987526  0.09897630    -0.23300
F2028       F  0.51582998  0.31651307  0.09252018    -0.20600
F2029       F  0.54619034  0.24801280  0.07513991    -0.20300
F2030       F  0.38295118  0.29986924  0.98190416    -0.20400
F2031       F  0.42165532  0.25943714  0.95088942    -0.20700
F2032       F  0.42636150  0.34258627  0.95681178    -0.23400
C2033       C  0.65888581  0.17938866  0.97458830    -0.06200
C2034       C  0.62375722  0.20099135  0.98008478    -0.00300
C2035       C  0.59238576  0.16888996  0.98208144    -0.08800
C2036       C  0.59816823  0.11656328  0.98217259    -0.06200
C2037       C  0.63383245  0.09525110  0.98043142    -0.00300
C2038       C  0.66473096  0.12695379  0.97557221    -0.08700
C2039       C  0.70404068  0.10606498  0.97323947     0.61600
H2040       H  0.68266672  0.20388478  0.97272453     0.12300
H2041       H  0.57473325  0.09199807  0.98597014     0.12300
C2042       C  0.55292921  0.18749872  0.98702080     0.61900
F2043       F  0.72828427  0.14156482  0.96200245    -0.23300
F2044       F  0.70447709  0.06529469  0.95420950    -0.20600
F2045       F  0.71696575  0.09125440  0.00133315    -0.20300
F2046       F  0.54718069  0.23547434  0.97593752    -0.20400
F2047       F  0.54565901  0.18684460  0.01738195    -0.20700
F2048       F  0.52774013  0.15659678  0.97258567    -0.23400
C2049       C  0.69858259  0.53099509  0.96823830    -0.06200
C2050       C  0.68291793  0.50997853  0.99435653    -0.00300
C2051       C  0.69636157  0.52643421  0.02265732    -0.08800
C2052       C  0.72621121  0.56010015  0.02392779    -0.06200
C2053       C  0.74457589  0.57673294  0.99811899    -0.00300
C2054       C  0.72871438  0.56535348  0.96971646    -0.08700
C2055       C  0.74304552  0.59009814  0.94144702     0.61600
H2056       H  0.68763511  0.51939102  0.94666653     0.12300
H2057       H  0.73784713  0.57028591  0.04555703     0.12300
C2058       C  0.68251379  0.50355571  0.05156862     0.61900
F2059       F  0.72358997  0.57479061  0.91619519    -0.23300
F2060       F  0.78020287  0.57874789  0.93752213    -0.20600
F2061       F  0.73885776  0.64160690  0.94388706    -0.20300
F2062       F  0.70211499  0.51991849  0.07652124    -0.20400
F2063       F  0.68682508  0.45209889  0.04991975    -0.20700
F2064       F  0.64550052  0.51594839  0.05543157    -0.23400
C2065       C  0.81653259  0.12584282  0.61758618    -0.06200
C2066       C  0.82720119  0.16500940  0.59807506    -0.00300
C2067       C  0.83412873  0.21289145  0.61001586    -0.08800
C2068       C  0.83367627  0.21854871  0.64146235    -0.06200
C2069       C  0.82738518  0.17767636  0.66140510    -0.00300
C2070       C  0.81688178  0.13079043  0.64901575    -0.08700
C2071       C  0.80773302  0.08515437  0.66828293     0.61600
H2072       H  0.81022671  0.08971078  0.60785540     0.12300
H2073       H  0.84012689  0.25496840  0.65065312     0.12300
C2074       C  0.84386578  0.25692985  0.58985547     0.61900
F2075       F  0.79672511  0.04457409  0.65118453    -0.23300
F2076       F  0.77886211  0.09661722  0.68733263    -0.20600
F2077       F  0.83878959  0.07037018  0.68480186    -0.20300
F2078       F  0.81514500  0.26587733  0.56956146    -0.20400
F2079       F  0.87602884  0.24615062  0.57445019    -0.20700
F2080       F  0.84960033  0.30048578  0.60597288    -0.23400
C2081       C  0.74009255  0.25232098  0.79766123    -0.06200
C2082       C  0.74584786  0.22601342  0.77096813    -0.00300
C2083       C  0.71763302  0.22694575  0.74856382    -0.08800
C2084       C  0.68697422  0.25970592  0.75170985    -0.06200
C2085       C  0.68374678  0.29153692  0.77658290    -0.00300
C2086       C  0.70893657  0.28436702  0.80120812    -0.08700
C2087       C  0.70351871  0.31048900  0.83102714     0.61600
H2088       H  0.76171860  0.25092877  0.81480737     0.12300
H2089       H  0.66695939  0.26350527  0.73346132     0.12300
C2090       C  0.72109696  0.19515904  0.72066397     0.61900
F2091       F  0.72478495  0.28800590  0.85358502    -0.23300
F2092       F  0.66661305  0.30768376  0.83933501    -0.20600
F2093       F  0.71387886  0.36029478  0.82886614    -0.20300
F2094       F  0.72921750  0.14601904  0.72892928    -0.20400
F2095       F  0.74920264  0.21335175  0.70278852    -0.20700
F2096       F  0.68843581  0.19527791  0.70390689    -0.23400
C2097       C  0.92218739  0.42205434  0.80991211    -0.06200
C2098       C  0.88913700  0.45043808  0.80694417    -0.00300
C2099       C  0.85482569  0.42606997  0.81257400    -0.08800
C2100       C  0.85425074  0.37328139  0.81168918    -0.06200
C2101       C  0.88688031  0.34516935  0.80706667    -0.00300
C2102       C  0.92157875  0.36925269  0.81125578    -0.08700
C2103       C  0.95780262  0.34034259  0.81579452     0.61600
H2104       H  0.94867599  0.44107092  0.80861326     0.12300
H2105       H  0.82777885  0.35409700  0.81145856     0.12300
C2106       C  0.81861351  0.45446221  0.81744175     0.61900
F2107       F  0.97057164  0.32237832  0.78879951    -0.23300
F2108       F  0.95248033  0.30049329  0.83540788    -0.20600
F2109       F  0.98504525  0.37062986  0.82809268    -0.20300
F2110       F  0.80580965  0.47596466  0.79090601    -0.20400
F2111       F  0.82414449  0.49148075  0.83859270    -0.20700
F2112       F  0.79113452  0.42292085  0.82799845    -0.23400
C2113       C  0.97834882  0.98116867  0.74789081    -0.06200
C2114       C  0.00628678  0.99301084  0.72696443    -0.00300
C2115       C  0.00002157  0.03596732  0.70783474    -0.08800
C2116       C  0.96936178  0.06810372  0.71322495    -0.06200
C2117       C  0.94358251  0.05831338  0.73571127    -0.00300
C2118       C  0.94684920  0.01273079  0.75223620    -0.08700
C2119       C  0.91757843  0.99838131  0.77491549     0.61600
H2120       H  0.98202580  0.94795792  0.76181891     0.12300
H2121       H  0.96603879  0.10282102  0.70061260     0.12300
C2122       C  0.02558384  0.04988979  0.68217471     0.61900
F2123       F  0.92479047  0.95176041  0.78784374    -0.23300
F2124       F  0.88314982  0.99660642  0.76082626    -0.20600
F2125       F  0.91634869  0.03350423  0.79750687    -0.20300
F2126       F  0.03167317  0.00853759  0.66421218    -0.20400
F2127       F  0.05897243  0.06747431  0.69340834    -0.20700
F2128       F  0.01028757  0.08739708  0.66408622    -0.23400
C2129       C  0.02213861  0.29785528  0.69887418    -0.06200
C2130       C  0.02860497  0.33860907  0.71815882    -0.00300
C2131       C  0.99774639  0.36761135  0.72800740    -0.08800
C2132       C  0.96198769  0.34781920  0.72378217    -0.06200
C2133       C  0.95713644  0.30065342  0.71061271    -0.00300
C2134       C  0.98647352  0.27870718  0.69469234    -0.08700
C2135       C  0.98152155  0.23281613  0.67527719     0.61600
H2136       H  0.04524582  0.27784087  0.68897960     0.12300
H2137       H  0.93853028  0.36541195  0.73469827     0.12300
C2138       C  0.00178291  0.41725157  0.74430397     0.61900
F2139       F  0.99832337  0.19177180  0.68917470    -0.23300
F2140       F  0.99810670  0.24100256  0.64783449    -0.20600
F2141       F  0.94437190  0.22235855  0.66999718    -0.20300
F2142       F  0.02627949  0.44792577  0.72928417    -0.20400
F2143       F  0.01434328  0.40936523  0.77339075    -0.20700
F2144       F  0.96814865  0.44249661  0.74562296    -0.23400
C2145       C  0.94785246  0.11975269  0.10478892    -0.06200
C2146       C  0.94374091  0.16982222  0.09544511    -0.00300
C2147       C  0.94656830  0.20852436  0.11728222    -0.08800
C2148       C  0.94606116  0.19517545  0.14792832    -0.06200
C2149       C  0.94544075  0.14480235  0.15721555    -0.00300
C2150       C  0.95027514  0.10654409  0.13530707    -0.08700
C2151       C  0.95779512  0.05171157  0.14341999     0.61600
H2152       H  0.94763193  0.09044190  0.08807200     0.12300
H2153       H  0.94451209  0.22423014  0.16474724     0.12300
C2154       C  0.95057968  0.26363741  0.10876750     0.61900
F2155       F  0.97397190  0.02639158  0.11981189    -0.23300
F2156       F  0.92486062  0.02794159  0.15025415    -0.20600
F2157       F  0.98218257  0.04823480  0.16760536    -0.20300
F2158       F  0.91655752  0.28357266  0.09987422    -0.20400
F2159       F  0.97582602  0.26866272  0.08573870    -0.20700
F2160       F  0.96363441  0.29148062  0.13274113    -0.23400
C2161       C  0.77357165  0.24331789  0.05889857    -0.06200
C2162       C  0.80213747  0.27601464  0.05080722    -0.00300
C2163       C  0.79425976  0.32803014  0.04810189    -0.08800
C2164       C  0.75695561  0.34276382  0.04435881    -0.06200
C2165       C  0.72831322  0.30714778  0.04503751    -0.00300
C2166       C  0.73625535  0.25759357  0.05566570    -0.08700
C2167       C  0.70651022  0.21822536  0.06102393     0.61600
H2168       H  0.78062339  0.20444717  0.06358800     0.12300
H2169       H  0.75023209  0.38154372  0.03882897     0.12300
C2170       C  0.82453485  0.36737975  0.04820818     0.61900
F2171       F  0.72139278  0.17340265  0.07191388    -0.23300
F2172       F  0.68810712  0.20786578  0.03445350    -0.20600
F2173       F  0.68148783  0.23552069  0.08196315    -0.20300
F2174       F  0.84323536  0.36737750  0.02137734    -0.20400
F2175       F  0.84939780  0.35731355  0.07143842    -0.20700
F2176       F  0.80997137  0.41509726  0.05244969    -0.23400
C2177       C  0.85337308  0.11835075  0.86259978    -0.06200
C2178       C  0.88630059  0.12526531  0.84674772    -0.00300
C2179       C  0.92088090  0.12510306  0.86271999    -0.08800
C2180       C  0.92067573  0.12629845  0.89419660    -0.06200
C2181       C  0.88739725  0.12543786  0.90997012    -0.00300
C2182       C  0.85331925  0.11792916  0.89414185    -0.08700
C2183       C  0.81640091  0.11328947  0.91002069     0.61600
H2184       H  0.82721397  0.11784021  0.85028974     0.12300
H2185       H  0.94659440  0.13127196  0.90646757     0.12300
C2186       C  0.95847292  0.12748793  0.84765900     0.61900
F2187       F  0.79038493  0.08924780  0.89217553    -0.23300
F2188       F  0.80281417  0.16048614  0.91688776    -0.20600
F2189       F  0.82065933  0.08540563  0.93607351    -0.20300
F2190       F  0.97094351  0.17652770  0.84769041    -0.20400
F2191       F  0.95713787  0.11026116  0.81853232    -0.20700
F2192       F  0.98388989  0.09762374  0.86326132    -0.23400
C2193       C  0.78117511  0.00736930  0.04582679    -0.06200
C2194       C  0.76906084  0.98023461  0.02046371    -0.00300
C2195       C  0.79018900  0.98393320  0.99367173    -0.08800
C2196       C  0.82098275  0.01651588  0.99301647    -0.06200
C2197       C  0.83039003  0.04718624  0.01728658    -0.00300
C2198       C  0.81138995  0.04102987  0.04460840    -0.08700
C2199       C  0.82249349  0.07107552  0.07197964     0.61600
H2200       H  0.76558045  0.00389524  0.06637405     0.12300
H2201       H  0.83691055  0.02062543  0.97273187     0.12300
C2202       C  0.77915886  0.95685352  0.96506205     0.61900
F2203       F  0.80127751  0.05879469  0.09665974    -0.23300
F2204       F  0.81798098  0.12183318  0.06608666    -0.20600
F2205       F  0.85939915  0.06140083  0.07913130    -0.20300
F2206       F  0.74349119  0.97090333  0.95643518    -0.20400
F2207       F  0.78080651  0.90545777  0.96978802    -0.20700
F2208       F  0.80251574  0.96824337  0.94149756    -0.23400
C2209       C  0.06872238  0.26770552  0.96324881    -0.06200
C2210       C  0.08468191  0.28771169  0.98959922    -0.00300
C2211       C  0.07140716  0.27090611  0.01781852    -0.08800
C2212       C  0.03989127  0.24013487  0.01860301    -0.06200
C2213       C  0.02126840  0.22524965  0.99238268    -0.00300
C2214       C  0.03771818  0.23512260  0.96431484    -0.08700
C2215       C  0.02229351  0.21176570  0.93598030     0.61600
H2216       H  0.07982684  0.27926213  0.94179358     0.12300
H2217       H  0.02749185  0.23074494  0.03996995     0.12300
C2218       C  0.08765590  0.28977455  0.04710486     0.61900
F2219       F  0.04332774  0.22395135  0.91117143    -0.23300
F2220       F  0.98622764  0.22804915  0.93080029    -0.20600
F2221       F  0.02255141  0.15999285  0.93924373    -0.20300
F2222       F  0.08419403  0.34141879  0.04758803    -0.20400
F2223       F  0.12472727  0.27601083  0.04955904    -0.20700
F2224       F  0.06959345  0.27045307  0.07189840    -0.23400
C2225       C  0.89949081  0.42421713  0.94754040    -0.06200
C2226       C  0.86690737  0.44667545  0.95856363    -0.00300
C2227       C  0.83368947  0.41771819  0.95875428    -0.08800
C2228       C  0.83686424  0.36526493  0.95628127    -0.06200
C2229       C  0.87174576  0.34228429  0.95313412    -0.00300
C2230       C  0.90195536  0.37201704  0.94396259    -0.08700
C2231       C  0.93760901  0.34940502  0.93233385     0.61600
H2232       H  0.92423957  0.44654668  0.94434646     0.12300
H2233       H  0.81295109  0.34209750  0.96105361     0.12300
C2234       C  0.79530646  0.44064351  0.96274476     0.61900
F2235       F  0.94859914  0.37553534  0.90699253    -0.23300
F2236       F  0.93283543  0.29969416  0.92440864    -0.20600
F2237       F  0.96522725  0.35242867  0.95407450    -0.20300
F2238       F  0.79209507  0.48368053  0.94540873    -0.20400
F2239       F  0.78916664  0.45188085  0.99250183    -0.20700
F2240       F  0.76769321  0.40804778  0.95349051    -0.23400
loop_ 
_geom_bond_atom_site_label_1 
_geom_bond_atom_site_label_2 
_geom_bond_distance 
_geom_bond_site_symmetry_2 
_ccdc_geom_bond_type 
O1           C16   1.262       .  A
O1           Al9   1.891   1_556  S
C2           O12   1.262       .  A
C2            O3   1.255   1_554  A
C2         C2197   1.487       .  S
O3           Al5   1.896       .  S
O4            C6   1.258       .  A
O4           Al5   1.874   1_554  S
Al5          O13   1.853       .  S
Al5          O15   1.933       .  S
Al5          O14   1.776   1_556  S
C6           O19   1.258       .  A
C6         C2162   1.473       .  S
O7           C17   1.258       .  A
O7           Al9   1.863       .  S
O8           C21   1.262       .  A
O8          Al18   1.940   1_556  S
Al9          O22   1.879       .  S
Al9          O19   1.922       .  S
Al9          O14   1.783       .  S
O10          C17   1.277       .  A
O10         Al18   1.956       .  S
O11          C20   1.274       .  A
O11         Al18   1.956   1_556  S
O12         Al18   1.935       .  S
O13          C20   1.256       .  A
O14         Al18   1.784       .  S
O15          C16   1.267       .  A
C16        C2229   1.479       .  S
C17        C2146   1.487       .  S
C20        C2181   1.475       .  S
C21          O22   1.254   1_556  A
C21        C2213   1.487   1_655  S
O23          C38   1.266       .  A
O23         Al31   1.893       .  S
C24          O34   1.263       .  A
C24          O25   1.256       .  A
C24        C2117   1.496       .  S
O25         Al27   1.900       .  S
O26          C28   1.256       .  A
O26         Al27   1.889       .  S
Al27         O35   1.854       .  S
Al27         O37   1.937       .  S
Al27         O36   1.776       .  S
C28          O41   1.255       .  A
C28        C2133   1.463       .  S
O29          C39   1.263       .  A
O29         Al31   1.865       .  S
O30          C43   1.261       .  A
O30         Al40   1.946       .  S
Al31         O44   1.877       .  S
Al31         O41   1.907       .  S
Al31         O36   1.790       .  S
O32          C39   1.280       .  A
O32         Al40   1.968       .  S
O33          C42   1.273       .  A
O33         Al40   1.948       .  S
O34         Al40   1.937       .  S
O35          C42   1.255       .  A
O36         Al40   1.783       .  S
O37          C38   1.268       .  A
C38        C2101   1.488       .  S
C39        C2069   1.503       .  S
C42        C2178   1.480       .  S
C43          O44   1.248       .  A
C43        C2082   1.483       .  S
O45          C60   1.259       .  A
O45         Al53   1.896   1_554  S
C46          O56   1.265       .  A
C46          O47   1.249       .  A
C46        C2021   1.504       .  S
O47         Al49   1.886       .  S
O48          C50   1.262   1_554  A
O48         Al49   1.890       .  S
Al49         O57   1.839       .  S
Al49         O59   1.886       .  S
Al49         O58   1.786       .  S
C50          O63   1.273       .  A
C50        C2034   1.492       .  S
O51          C61   1.258       .  A
O51         Al53   1.871       .  S
O52          C65   1.262   1_554  A
O52         Al62   1.917       .  S
Al53         O66   1.937       .  S
Al53         O63   1.953       .  S
Al53         O58   1.781   1_556  S
O54          C61   1.276       .  A
O54         Al62   1.970   1_556  S
O55          C64   1.281       .  A
O55         Al62   2.001       .  S
O56         Al62   1.945       .  S
O57          C64   1.255       .  A
O58         Al62   1.779       .  S
O59          C60   1.253       .  A
C60        C2165   1.474       .  S
C61        C1986   1.496       .  S
C64        C2002   1.499       .  S
C65          O66   1.263       .  A
C65        C2050   1.505       .  S
O67          C82   1.262       .  A
O67         Al75   1.899       .  S
C68          O78   1.263       .  A
C68          O69   1.259       .  A
C68        C1941   1.494       .  S
O69         Al71   1.919       .  S
O70          C72   1.258       .  A
O70         Al71   1.881       .  S
Al71         O79   1.857       .  S
Al71         O81   1.927       .  S
Al71         O80   1.774       .  S
C72          O85   1.269       .  A
C72        C1957   1.475       .  S
O73          C83   1.263       .  A
O73         Al75   1.885       .  S
O74          C87   1.265       .  A
O74         Al84   1.912       .  S
Al75         O88   1.921       .  S
Al75         O85   1.956       .  S
Al75         O80   1.773       .  S
O76          C83   1.272       .  A
O76         Al84   1.953       .  S
O77          C86   1.275       .  A
O77         Al84   1.970       .  S
O78         Al84   1.924       .  S
O79          C86   1.254       .  A
O80         Al84   1.774       .  S
O81          C82   1.262       .  A
C82        C1970   1.490       .  S
C83        C1909   1.495       .  S
C86        C2005   1.478       .  S
C87          O88   1.262       .  A
C87        C1922   1.501       .  S
O89         C104   1.265       .  A
O89         Al97   1.888       .  S
C90         O100   1.264       .  A
C90          O91   1.259       .  A
C90        C1877   1.486       .  S
O91         Al93   1.899       .  S
O92          C94   1.255       .  A
O92         Al93   1.887       .  S
Al93        O101   1.867       .  S
Al93        O103   1.939       .  S
Al93        O102   1.776       .  S
C94         O107   1.253       .  A
C94        C1973   1.473       .  S
O95         C105   1.259       .  A
O95         Al97   1.868       .  S
O96         C109   1.263       .  A
O96        Al106   1.940       .  S
Al97        O110   1.888       .  S
Al97        O107   1.914       .  S
Al97        O102   1.788       .  S
O98         C105   1.279       .  A
O98        Al106   1.967       .  S
O99         C108   1.269       .  A
O99        Al106   1.945       .  S
O100       Al106   1.926       .  S
O101        C108   1.256       .  A
O102       Al106   1.786       .  S
O103        C104   1.269       .  A
C104       C1861   1.490       .  S
C105       C1826   1.495       .  S
C108       C1890   1.480       .  S
C109        O110   1.251       .  A
C109       C1842   1.479       .  S
O111        C126   1.258       .  A
O111       Al119   1.886       .  S
C112        O122   1.265       .  A
C112        O113   1.260       .  A
C112       C1765   1.497       .  S
O113       Al115   1.917       .  S
O114        C116   1.258       .  A
O114       Al115   1.879       .  S
Al115       O123   1.857       .  S
Al115       O125   1.948       .  S
Al115       O124   1.772       .  S
C116        O129   1.259       .  A
C116       C1810   1.470       .  S
O117        C127   1.252       .  A
O117       Al119   1.849       .  S
O118        C131   1.267       .  A
O118       Al128   1.947       .  S
Al119       O132   1.898       .  S
Al119       O129   1.917       .  S
Al119       O124   1.778       .  S
O120        C127   1.279       .  A
O120       Al128   1.983       .  S
O121        C130   1.278       .  A
O121       Al128   1.981       .  S
O122       Al128   1.941       .  S
O123        C130   1.255       .  A
O124       Al128   1.782       .  S
O125        C126   1.269       .  A
C126       C1797   1.488       .  S
C127       C1746   1.497       .  S
C130       C1893   1.487       .  S
C131        O132   1.256       .  A
C131       C1778   1.489       .  S
O133        C148   1.257       .  A
O133       Al141   1.889       .  S
C134        O144   1.267       .  A
C134        O135   1.259       .  A
C134       C1698   1.510       .  S
O135       Al137   1.910       .  S
O136        C138   1.259       .  A
O136       Al137   1.885       .  S
Al137       O145   1.856       .  S
Al137       O147   1.905       .  S
Al137       O146   1.769       .  S
C138        O151   1.263       .  A
C138       C1717   1.477       .  S
O139        C149   1.259       .  A
O139       Al141   1.878       .  S
O140        C153   1.264       .  A
O140       Al150   1.917       .  S
Al141       O154   1.913       .  S
Al141       O151   1.932       .  S
Al141       O146   1.774       .  S
O142        C149   1.276       .  A
O142       Al150   1.965       .  S
O143        C152   1.274       .  A
O143       Al150   1.977       .  S
O144       Al150   1.931       .  S
O145        C152   1.252       .  A
O146       Al150   1.777       .  S
O147        C148   1.264       .  A
C148       C2130   1.480       .  S
C149       C1666   1.488       .  S
C152       C1730   1.483       .  S
C153        O154   1.260       .  A
C153       C1682   1.494       .  S
O155        C170   1.261       .  A
O155       Al163   1.894       .  S
C156        O166   1.261       .  A
C156        O157   1.255       .  A
C156       C1618   1.494       .  S
O157       Al159   1.908       .  S
O158        C160   1.265       .  A
O158       Al159   1.888       .  S
Al159       O167   1.858       .  S
Al159       O169   1.895       .  S
Al159       O168   1.780       .  S
C160        O173   1.265       .  A
C160       C1637   1.482       .  S
O161        C171   1.254       .  A
O161       Al163   1.865       .  S
O162        C175   1.261       .  A
O162       Al172   1.905       .  S
Al163       O176   1.919       .  S
Al163       O173   1.924       .  S
Al163       O168   1.771       .  S
O164        C171   1.272       .  A
O164       Al172   1.952       .  S
O165        C174   1.278       .  A
O165       Al172   1.978       .  S
O166       Al172   1.925       .  S
O167        C174   1.256       .  A
O168       Al172   1.776       .  S
O169        C170   1.254       .  A
C170       C1813   1.474       .  S
C171       C1602   1.480       .  S
C174       C1733   1.485       .  S
C175        O176   1.261       .  A
C175       C1650   1.491       .  S
O177        C192   1.259       .  A
O177       Al185   1.886       .  S
C178        O188   1.261       .  A
C178        O179   1.259       .  A
C178       C1522   1.499       .  S
O179       Al181   1.916       .  S
O180        C182   1.257       .  A
O180       Al181   1.883       .  S
Al181       O189   1.845       .  S
Al181       O191   1.915       .  S
Al181       O190   1.779       .  S
C182        O195   1.264       .  A
C182       C1538   1.470       .  S
O183        C193   1.261       .  A
O183       Al185   1.867       .  S
O184        C197   1.260       .  A
O184       Al194   1.913       .  S
Al185       O198   1.922       .  S
Al185       O195   1.931       .  S
Al185       O190   1.775       .  S
O186        C193   1.272       .  A
O186       Al194   1.949       .  S
O187        C196   1.272       .  A
O187       Al194   1.957       .  S
O188       Al194   1.920       .  S
O189        C196   1.252       .  A
O190       Al194   1.777       .  S
O191        C192   1.264       .  A
C192       C1557   1.482       .  S
C193       C1506   1.482       .  S
C196       C1573   1.473       .  S
C197        O198   1.261       .  A
C197       C1586   1.503   1_565  S
O199        C214   1.261       .  A
O199       Al207   1.910       .  S
C200        O210   1.260       .  A
C200        O201   1.254       .  A
C200       C1474   1.505       .  S
O201       Al203   1.911       .  S
O202        C204   1.263       .  A
O202       Al203   1.873       .  S
Al203       O211   1.835       .  S
Al203       O213   1.909       .  S
Al203       O212   1.785       .  S
C204        O217   1.268       .  A
C204       C1493   1.484       .  S
O205        C215   1.258       .  A
O205       Al207   1.872       .  S
O206        C219   1.257       .  A
O206       Al216   1.909       .  S
Al207       O220   1.922       .  S
Al207       O217   1.946       .  S
Al207       O212   1.785       .  S
O208        C215   1.275       .  A
O208       Al216   1.956       .  S
O209        C218   1.278       .  A
O209       Al216   1.972       .  S
O210       Al216   1.933       .  S
O211        C218   1.254       .  A
O212       Al216   1.782       .  S
O213        C214   1.257       .  A
C214       C1458   1.486       .  S
C215       C1426   1.491       .  S
C218       C1570   1.475       .  S
C219        O220   1.260       .  A
C219       C1442   1.500   1_565  S
O221        C236   1.260       .  A
O221       Al229   1.882   1_556  S
C222        O232   1.260       .  A
C222        O223   1.262   1_554  A
C222       C1349   1.486       .  S
O223       Al225   1.920       .  S
O224        C226   1.253       .  A
O224       Al225   1.880   1_554  S
Al225       O233   1.851       .  S
Al225       O235   1.966       .  S
Al225       O234   1.769   1_556  S
C226        O239   1.261       .  A
C226       C1362   1.467       .  S
O227        C237   1.261       .  A
O227       Al229   1.854       .  S
O228        C241   1.263       .  A
O228       Al238   1.936   1_556  S
Al229       O242   1.903       .  S
Al229       O239   1.929       .  S
Al229       O234   1.781       .  S
O230        C237   1.280       .  A
O230       Al238   1.980       .  S
O231        C240   1.275       .  A
O231       Al238   1.966   1_556  S
O232       Al238   1.915       .  S
O233        C240   1.253       .  A
O234       Al238   1.778       .  S
O235        C236   1.276       .  A
C236       C1410   1.492       .  S
C237       C1330   1.496       .  S
C240       C1381   1.479       .  S
C241        O242   1.257   1_556  A
C241       C1394   1.485       .  S
O243        C258   1.260       .  A
O243       Al251   1.878       .  S
C244        O254   1.260       .  A
C244        O245   1.260       .  A
C244       C1285   1.485       .  S
O245       Al247   1.915       .  S
O246        C248   1.254       .  A
O246       Al247   1.879       .  S
Al247       O255   1.852       .  S
Al247       O257   1.958       .  S
Al247       O256   1.772       .  S
C248        O261   1.260       .  A
C248       C1554   1.468       .  S
O249        C259   1.255       .  A
O249       Al251   1.847       .  S
O250        C263   1.262       .  A
O250       Al260   1.934       .  S
Al251       O264   1.901       .  S
Al251       O261   1.925       .  S
Al251       O256   1.782       .  S
O252        C259   1.281       .  A
O252       Al260   1.977       .  S
O253        C262   1.276       .  A
O253       Al260   1.966       .  S
O254       Al260   1.917       .  S
O255        C262   1.254       .  A
O256       Al260   1.779       .  S
O257        C258   1.274       .  A
C258       C1314   1.484       .  S
C259       C1266   1.489       .  S
C262       C1378   1.482       .  S
C263        O264   1.255       .  A
C263       C1298   1.483       .  S
O265        C280   1.256   1_556  A
O265       Al273   1.887       .  S
C266        O276   1.266       .  A
C266        O267   1.261       .  A
C266       C1202   1.505       .  S
O267       Al269   1.920       .  S
O268        C270   1.258       .  A
O268       Al269   1.880   1_556  S
Al269       O277   1.858       .  S
Al269       O279   1.916       .  S
Al269       O278   1.778   1_554  S
C270        O283   1.266       .  A
C270       C1221   1.483       .  S
O271        C281   1.258       .  A
O271       Al273   1.870       .  S
O272        C285   1.263   1_554  A
O272       Al282   1.927       .  S
Al273       O286   1.929       .  S
Al273       O283   1.941       .  S
Al273       O278   1.781       .  S
O274        C281   1.273       .  A
O274       Al282   1.954   1_556  S
O275        C284   1.272       .  A
O275       Al282   1.963       .  S
O276       Al282   1.934       .  S
O277        C284   1.254       .  A
O278       Al282   1.777   1_556  S
O279        C280   1.266       .  A
C280       C1365   1.487       .  S
C281       C1189   1.481       .  S
C284       C1234   1.481       .  S
C285        O286   1.264       .  A
C285       C1250   1.511   1_565  S
O287        C302   1.262       .  A
O287       Al295   1.903       .  S
C288        O298   1.262       .  A
C288        O289   1.256       .  A
C288       C1154   1.495       .  S
O289       Al291   1.913       .  S
O290        C292   1.261       .  A
O290       Al291   1.879       .  S
Al291       O299   1.847       .  S
Al291       O301   1.896       .  S
Al291       O300   1.778       .  S
C292        O305   1.271       .  A
C292       C1170   1.474       .  S
O293        C303   1.258       .  A
O293       Al295   1.876       .  S
O294        C307   1.257       .  A
O294       Al304   1.890       .  S
Al295       O308   1.931       .  S
Al295       O305   1.942       .  S
Al295       O300   1.771       .  S
O296        C303   1.273       .  A
O296       Al304   1.959       .  S
O297        C306   1.277       .  A
O297       Al304   1.976       .  S
O298       Al304   1.916       .  S
O299        C306   1.253       .  A
O300       Al304   1.774       .  S
O301        C302   1.256       .  A
C302       C1138   1.480       .  S
C303       C1106   1.484       .  S
C306       C1237   1.477       .  S
C307        O308   1.265       .  A
C307       C1122   1.495   1_565  S
O309        C324   1.262       .  A
O309       Al317   1.900       .  S
C310        O320   1.258       .  A
C310        O311   1.259       .  A
C310       C1090   1.478       .  S
O311       Al313   1.910       .  S
O312        C314   1.258       .  A
O312       Al313   1.881       .  S
Al313       O321   1.862       .  S
Al313       O323   1.936       .  S
Al313       O322   1.776       .  S
C314        O327   1.256       .  A
C314       C1141   1.469       .  S
O315        C325   1.259       .  A
O315       Al317   1.863       .  S
O316        C329   1.258       .  A
O316       Al326   1.917       .  S
Al317       O330   1.891       .  S
Al317       O327   1.913       .  S
Al317       O322   1.787       .  S
O318        C325   1.275       .  A
O318       Al326   1.964       .  S
O319        C328   1.271       .  A
O319       Al326   1.950       .  S
O320       Al326   1.906       .  S
O321        C328   1.256       .  A
O322       Al326   1.786       .  S
O323        C324   1.269       .  A
C324       C1058   1.491       .  S
C325       C1026   1.501       .  S
C328       C1074   1.475       .  S
C329        O330   1.255       .  A
C329       C1042   1.471       .  S
O331        C346   1.258       .  A
O331       Al339   1.894       .  S
C332        O342   1.263       .  A
C332        O333   1.259       .  A
C332       C1010   1.488       .  S
O333       Al335   1.916       .  S
O334        C336   1.257       .  A
O334       Al335   1.877       .  S
Al335       O343   1.860       .  S
Al335       O345   1.947       .  S
Al335       O344   1.773       .  S
C336        O349   1.264       .  A
C336       C1461   1.480       .  S
O337        C347   1.257       .  A
O337       Al339   1.859       .  S
O338        C351   1.263       .  A
O338       Al348   1.927       .  S
Al339       O352   1.906       .  S
Al339       O349   1.940       .  S
Al339       O344   1.781       .  S
O340        C347   1.277       .  A
O340       Al348   1.972       .  S
O341        C350   1.276       .  A
O341       Al348   1.968       .  S
O342       Al348   1.929       .  S
O343        C350   1.257       .  A
O344       Al348   1.783       .  S
O345        C346   1.269       .  A
C346        C997   1.488       .  S
C347        C965   1.487       .  S
C350       C1077   1.484       .  S
C351        O352   1.259       .  A
C351        C978   1.481   1_655  S
O353        C368   1.257       .  A
O353       Al361   1.874       .  S
C354        O364   1.263       .  A
C354        O355   1.261       .  A
C354       C1621   1.486       .  S
O355       Al357   1.914       .  S
O356        C358   1.252       .  A
O356       Al357   1.882       .  S
Al357       O365   1.834       .  S
Al357       O367   1.974       .  S
Al357       O366   1.764       .  S
C358        O371   1.260       .  A
C358        C930   1.464       .  S
O359        C369   1.258       .  A
O359       Al361   1.843       .  S
O360        C373   1.263       .  A
O360       Al370   1.938       .  S
Al361       O374   1.903       .  S
Al361       O371   1.927       .  S
Al361       O366   1.777       .  S
O362        C369   1.284       .  A
O362       Al370   1.999       .  S
O363        C372   1.277       .  A
O363       Al370   1.985       .  S
O364       Al370   1.918       .  S
O365        C372   1.251       .  A
O366       Al370   1.776       .  S
O367        C368   1.279       .  A
C368        C994   1.498   1_545  S
C369       C2066   1.488       .  S
C372        C949   1.496       .  S
C373        O374   1.258       .  A
C373       C1445   1.489       .  S
O375        C390   1.259       .  A
O375       Al383   1.891       .  S
C376        O386   1.261       .  A
C376        O377   1.261       .  A
C376       C1938   1.494       .  S
O377       Al379   1.915       .  S
O378        C380   1.257       .  A
O378       Al379   1.882       .  S
Al379       O387   1.831       .  S
Al379       O389   1.957       .  S
Al379       O388   1.765       .  S
C380        O393   1.261       .  A
C380        C914   1.468       .  S
O381        C391   1.257       .  A
O381       Al383   1.852       .  S
O382        C395   1.259       .  A
O382       Al392   1.917       .  S
Al383       O396   1.896       .  S
Al383       O393   1.931       .  S
Al383       O388   1.781       .  S
O384        C391   1.281       .  A
O384       Al392   1.980       .  S
O385        C394   1.276       .  A
O385       Al392   1.985       .  S
O386       Al392   1.921       .  S
O387        C394   1.255       .  A
O388       Al392   1.783       .  S
O389        C390   1.275       .  A
C390       C1061   1.496   1_545  S
C391       C2149   1.488       .  S
C394        C946   1.489       .  S
C395        O396   1.255       .  A
C395       C1125   1.472   1_655  S
O397        C412   1.256       .  A
O397       Al405   1.888       .  S
C398        O408   1.268       .  A
C398        O399   1.259       .  A
C398       C2114   1.521       .  S
O399       Al401   1.918       .  S
O400        C402   1.259       .  A
O400       Al401   1.885   1_545  S
Al401       O409   1.858       .  S
Al401       O411   1.906       .  S
Al401       O410   1.772       .  S
C402        O415   1.266       .  A
C402       C1714   1.480       .  S
O403        C413   1.260       .  A
O403       Al405   1.873       .  S
O404        C417   1.266       .  A
O404       Al414   1.927       .  S
Al405       O418   1.917       .  S
Al405       O415   1.939   1_565  S
Al405       O410   1.775       .  S
O406        C413   1.273       .  A
O406       Al414   1.956       .  S
O407        C416   1.275       .  A
O407       Al414   1.975       .  S
O408       Al414   1.947       .  S
O409        C416   1.252       .  A
O410       Al414   1.777       .  S
O411        C412   1.263       .  A
C412        C885   1.483       .  S
C413       C1186   1.485       .  S
C416        C898   1.484       .  S
C417        O418   1.260       .  A
C417       C1301   1.505       .  S
O419        C434   1.257       .  A
O419       Al427   1.882       .  S
C420        O430   1.259       .  A
C420        O421   1.262       .  A
C420       C1762   1.512       .  S
O421       Al423   1.930       .  S
O422        C424   1.258       .  A
O422       Al423   1.881   1_545  S
Al423       O431   1.855       .  S
Al423       O433   1.921       .  S
Al423       O432   1.783       .  S
C424        O437   1.264       .  A
C424       C1634   1.477       .  S
O425        C435   1.258       .  A
O425       Al427   1.867       .  S
O426        C439   1.256       .  A
O426       Al436   1.905       .  S
Al427       O440   1.930       .  S
Al427       O437   1.937   1_565  S
Al427       O432   1.788       .  S
O428        C435   1.277       .  A
O428       Al436   1.966       .  S
O429        C438   1.275       .  A
O429       Al436   1.976       .  S
O430       Al436   1.918       .  S
O431        C438   1.252       .  A
O432       Al436   1.779       .  S
O433        C434   1.268       .  A
C434        C933   1.488       .  S
C435       C1109   1.496       .  S
C438        C901   1.488       .  S
C439        O440   1.262       .  A
C439        C981   1.506       .  S
O441        C456   1.260       .  A
O441       Al449   1.894   1_554  S
C442        O452   1.260       .  A
C442        O443   1.260       .  A
C442       C2194   1.505       .  S
O443       Al445   1.917       .  S
O444        C446   1.257   1_554  A
O444       Al445   1.883   1_545  S
Al445       O453   1.845       .  S
Al445       O455   1.921       .  S
Al445       O454   1.784       .  S
C446        O459   1.269       .  A
C446       C2037   1.482       .  S
O447        C457   1.261       .  A
O447       Al449   1.881       .  S
O448        C461   1.259   1_554  A
O448       Al458   1.906       .  S
Al449       O462   1.936       .  S
Al449       O459   1.946   1_565  S
Al449       O454   1.779   1_556  S
O450        C457   1.268       .  A
O450       Al458   1.934   1_556  S
O451        C460   1.271       .  A
O451       Al458   1.958       .  S
O452       Al458   1.919       .  S
O453        C460   1.253       .  A
O454       Al458   1.783       .  S
O455        C456   1.264       .  A
C456        C853   1.484       .  S
C457       C1509   1.483       .  S
C460        C866   1.477       .  S
C461        O462   1.264       .  A
C461       C1397   1.506       .  S
O463        C478   1.257       .  A
O463       Al471   1.893       .  S
C464        O474   1.261       .  A
C464        O465   1.262       .  A
C464       C1874   1.507       .  S
O465       Al467   1.917       .  S
O466        C468   1.256       .  A
O466       Al467   1.876   1_545  S
Al467       O475   1.837       .  S
Al467       O477   1.908       .  S
Al467       O476   1.767       .  S
C468        O481   1.274       .  A
C468       C1954   1.491       .  S
O469        C479   1.261       .  A
O469       Al471   1.884       .  S
O470        C483   1.258       .  A
O470       Al480   1.887       .  S
Al471       O484   1.947       .  S
Al471       O481   1.975   1_565  S
Al471       O476   1.773       .  S
O472        C479   1.271       .  A
O472       Al480   1.945       .  S
O473        C482   1.276       .  A
O473       Al480   1.980       .  S
O474       Al480   1.921       .  S
O475        C482   1.250       .  A
O476       Al480   1.776       .  S
O477        C478   1.259       .  A
C478        C917   1.481       .  S
C479       C1429   1.484       .  S
C482        C869   1.476       .  S
C483        O484   1.270       .  A
C483       C1045   1.500       .  S
O485        C500   1.260   1_545  A
O485       Al493   1.885   1_556  S
C486        O496   1.259       .  A
C486        O487   1.260   1_554  A
C486       C2018   1.483       .  S
O487       Al489   1.917       .  S
O488        C490   1.254       .  A
O488       Al489   1.881   1_554  S
Al489       O497   1.861       .  S
Al489       O499   1.954       .  S
Al489       O498   1.775   1_556  S
C490        O503   1.262       .  A
C490        C850   1.473       .  S
O491        C501   1.257       .  A
O491       Al493   1.857       .  S
O492        C505   1.262       .  A
O492       Al502   1.931       .  S
Al493       O506   1.913       .  S
Al493       O503   1.937       .  S
Al493       O498   1.784       .  S
O494        C501   1.278       .  A
O494       Al502   1.966   1_554  S
O495        C504   1.275       .  A
O495       Al502   1.961       .  S
O496       Al502   1.912   1_554  S
O497        C504   1.255       .  A
O498       Al502   1.783   1_554  S
O499        C500   1.273   1_545  A
C500       C1413   1.487       .  S
C501       C1829   1.485       .  S
C504        C837   1.482       .  S
C505        O506   1.258   1_556  A
C505       C1253   1.488       .  S
O507        C522   1.260       .  A
O507       Al515   1.880       .  S
C508        O518   1.260       .  A
C508        O509   1.261       .  A
C508       C1701   1.487       .  S
O509       Al511   1.914       .  S
O510        C512   1.254       .  A
O510       Al511   1.883       .  S
Al511       O519   1.854       .  S
Al511       O521   1.969       .  S
Al511       O520   1.775       .  S
C512        O525   1.257       .  A
C512        C882   1.461       .  S
O513        C523   1.258       .  A
O513       Al515   1.858       .  S
O514        C527   1.261       .  A
O514       Al524   1.930       .  S
Al515       O528   1.891       .  S
Al515       O525   1.914       .  S
Al515       O520   1.785       .  S
O516        C523   1.282       .  A
O516       Al524   1.975       .  S
O517        C526   1.275       .  A
O517       Al524   1.960       .  S
O518       Al524   1.917       .  S
O519        C526   1.254       .  A
O520       Al524   1.781       .  S
O521        C522   1.276       .  A
C522       C1317   1.493   1_545  S
C523       C1749   1.487       .  S
C526        C834   1.481       .  S
C527        O528   1.254       .  A
C527       C1589   1.479       .  S
O529        C544   1.263       .  A
O529       Al537   1.892   1_554  S
C530        O540   1.260       .  A
C530        O531   1.255       .  A
C530       C1346   1.500       .  S
O531       Al533   1.896       .  S
O532        C534   1.260       .  A
O532       Al533   1.887   1_556  S
Al533       O541   1.847       .  S
Al533       O543   1.908       .  S
Al533       O542   1.785       .  S
C534        O547   1.264       .  A
C534       C1218   1.484       .  S
O535        C545   1.262       .  A
O535       Al537   1.875       .  S
O536        C549   1.256   1_554  A
O536       Al546   1.907       .  S
Al537       O550   1.922       .  S
Al537       O547   1.941       .  S
Al537       O542   1.789   1_556  S
O538        C545   1.278       .  A
O538       Al546   1.963   1_556  S
O539        C548   1.275       .  A
O539       Al546   1.973       .  S
O540       Al546   1.925       .  S
O541        C548   1.254       .  A
O542       Al546   1.783       .  S
O543        C544   1.260       .  A
C544        C802   1.482       .  S
C545       C1669   1.490       .  S
C548        C821   1.493       .  S
C549        O550   1.257       .  A
C549       C2210   1.496       .  S
O551        C566   1.260       .  A
O551       Al559   1.894       .  S
C552        O562   1.260       .  A
C552        O553   1.257       .  A
C552       C1093   1.503       .  S
O553       Al555   1.900       .  S
O554        C556   1.259       .  A
O554       Al555   1.882       .  S
Al555       O563   1.854       .  S
Al555       O565   1.892       .  S
Al555       O564   1.783       .  S
C556        O569   1.269       .  A
C556       C1173   1.485       .  S
O557        C567   1.257       .  A
O557       Al559   1.874       .  S
O558        C571   1.262       .  A
O558       Al568   1.911       .  S
Al559       O572   1.916       .  S
Al559       O569   1.938       .  S
Al559       O564   1.776       .  S
O560        C567   1.273       .  A
O560       Al568   1.957       .  S
O561        C570   1.274       .  A
O561       Al568   1.967       .  S
O562       Al568   1.921       .  S
O563        C570   1.254       .  A
O564       Al568   1.779       .  S
O565        C566   1.258       .  A
C566        C786   1.466       .  S
C567       C1605   1.496       .  S
C570        C818   1.476       .  S
C571        O572   1.260       .  A
C571       C1845   1.496       .  S
O573        C588   1.257       .  A
O573       Al581   1.884   1_556  S
C574        O584   1.267       .  A
C574        O575   1.266   1_554  A
C574       C1205   1.503       .  S
O575       Al577   1.938       .  S
O576        C578   1.257       .  A
O576       Al577   1.877   1_554  S
Al577       O585   1.849       .  S
Al577       O587   1.946       .  S
Al577       O586   1.762   1_556  S
C578        O591   1.261       .  A
C578        C805   1.471       .  S
O579        C589   1.262       .  A
O579       Al581   1.868       .  S
O580        C593   1.270   1_556  A
O580       Al590   1.961   1_556  S
Al581       O594   1.893       .  S
Al581       O591   1.933       .  S
Al581       O586   1.778       .  S
O582        C589   1.278       .  A
O582       Al590   1.972       .  S
O583        C592   1.272       .  A
O583       Al590   1.972   1_556  S
O584       Al590   1.937       .  S
O585        C592   1.253       .  A
O586       Al590   1.779       .  S
O587        C588   1.272       .  A
C588       C2226   1.490       .  S
C589       C1029   1.494       .  S
C592        C770   1.488       .  S
C593        O594   1.259       .  A
C593       C2053   1.500   1_554  S
O595        C610   1.260       .  A
O595       Al603   1.896       .  S
C596        O606   1.265       .  A
C596        O597   1.260       .  A
C596       C1525   1.490       .  S
O597       Al599   1.906       .  S
O598        C600   1.258       .  A
O598       Al599   1.862       .  S
Al599       O607   1.850       .  S
Al599       O609   1.929       .  S
Al599       O608   1.772       .  S
C600        O613   1.263       .  A
C600        C754   1.471       .  S
O601        C611   1.255       .  A
O601       Al603   1.873       .  S
O602        C615   1.264       .  A
O602       Al612   1.926       .  S
Al603       O616   1.897       .  S
Al603       O613   1.932       .  S
Al603       O608   1.779       .  S
O604        C611   1.274       .  A
O604       Al612   1.956       .  S
O605        C614   1.273       .  A
O605       Al612   1.966       .  S
O606       Al612   1.936       .  S
O607        C614   1.256       .  A
O608       Al612   1.781       .  S
O609        C610   1.261       .  A
C610       C2098   1.490       .  S
C611        C962   1.496       .  S
C614        C773   1.467       .  S
C615        O616   1.259       .  A
C615       C1685   1.476   1_655  S
O617        C632   1.259       .  A
O617       Al625   1.893       .  S
C618        O628   1.265       .  A
C618        O619   1.254       .  A
C618       C1282   1.504       .  S
O619       Al621   1.898       .  S
O620        C622   1.261       .  A
O620       Al621   1.892       .  S
Al621       O629   1.861       .  S
Al621       O631   1.900       .  S
Al621       O630   1.782       .  S
C622        O635   1.268       .  A
C622       C1541   1.484       .  S
O623        C633   1.254       .  A
O623       Al625   1.869       .  S
O624        C637   1.263       .  A
O624       Al634   1.914       .  S
Al625       O638   1.914       .  S
Al625       O635   1.924       .  S
Al625       O630   1.772       .  S
O626        C633   1.275       .  A
O626       Al634   1.969       .  S
O627        C636   1.280       .  A
O627       Al634   1.988       .  S
O628       Al634   1.937       .  S
O629        C636   1.256       .  A
O630       Al634   1.779       .  S
O631        C632   1.256       .  A
C632        C757   1.476       .  S
C633       C1989   1.494       .  S
C636        C738   1.489       .  S
C637        O638   1.260       .  A
C637       C2085   1.499       .  S
O639        C654   1.259       .  A
O639       Al647   1.888       .  S
C640        O650   1.267       .  A
C640        O641   1.258       .  A
C640       C1013   1.513       .  S
O641       Al643   1.908       .  S
O642        C644   1.259       .  A
O642       Al643   1.898       .  S
Al643       O651   1.865       .  S
Al643       O653   1.910       .  S
Al643       O652   1.779       .  S
C644        O657   1.260       .  A
C644       C1490   1.481       .  S
O645        C655   1.261       .  A
O645       Al647   1.878       .  S
O646        C659   1.267       .  A
O646       Al656   1.937       .  S
Al647       O660   1.916       .  S
Al647       O657   1.924       .  S
Al647       O652   1.781       .  S
O648        C655   1.274       .  A
O648       Al656   1.961       .  S
O649        C658   1.273       .  A
O649       Al656   1.975       .  S
O650       Al656   1.939       .  S
O651        C658   1.253       .  A
O652       Al656   1.782       .  S
O653        C654   1.265       .  A
C654        C725   1.484       .  S
C655       C1906   1.494       .  S
C658        C741   1.490       .  S
C659        O660   1.257       .  A
C659       C1781   1.510       .  S
O661        C676   1.261       .  A
O661       Al669   1.884       .  S
C662        O672   1.265       .  A
C662        O663   1.262       .  A
C662       C1477   1.493       .  S
O663       Al665   1.917       .  S
O664        C666   1.257       .  A
O664       Al665   1.885       .  S
Al665       O673   1.857       .  S
Al665       O675   1.955       .  S
Al665       O674   1.771       .  S
C666        O679   1.260       .  A
C666        C722   1.464       .  S
O667        C677   1.256       .  A
O667       Al669   1.862       .  S
O668        C681   1.264       .  A
O668       Al678   1.934       .  S
Al669       O682   1.902       .  S
Al669       O679   1.916       .  S
Al669       O674   1.783       .  S
O670        C677   1.275       .  A
O670       Al678   1.956       .  S
O671        C680   1.270       .  A
O671       Al678   1.953       .  S
O672       Al678   1.933       .  S
O673        C680   1.256       .  A
O674       Al678   1.781       .  S
O675        C676   1.272       .  A
C676       C1794   1.493       .  S
C677       C1269   1.486       .  S
C680        C706   1.470       .  S
C681        O682   1.258       .  A
C681       C1653   1.480       .  S
O683        C698   1.261       .  A
O683       Al691   1.891       .  S
C684        O694   1.263       .  A
C684        O685   1.259       .  A
C684       C1157   1.484       .  S
O685       Al687   1.910       .  S
O686        C688   1.257       .  A
O686       Al687   1.871       .  S
Al687       O695   1.853       .  S
Al687       O697   1.933       .  S
Al687       O696   1.770       .  S
C688        O701   1.260       .  A
C688        C789   1.462       .  S
O689        C699   1.258       .  A
O689       Al691   1.860       .  S
O690        C703   1.266       .  A
O690       Al700   1.936       .  S
Al691       O704   1.886       .  S
Al691       O701   1.911       .  S
Al691       O696   1.778       .  S
O692        C699   1.275       .  A
O692       Al700   1.967       .  S
O693        C702   1.274       .  A
O693       Al700   1.972       .  S
O694       Al700   1.926       .  S
O695        C702   1.256       .  A
O696       Al700   1.778       .  S
O697        C698   1.265       .  A
C698       C1858   1.488       .  S
C699       C1333   1.494       .  S
C702        C709   1.486       .  S
C703        O704   1.255       .  A
C703       C1925   1.478       .  S
C705        C706   1.408       .  A
C705        C710   1.412       .  A
C705        H712   1.083       .  S
C706        C707   1.406       .  A
C707        C708   1.402       .  A
C707        C714   1.517       .  S
C708        C709   1.412       .  A
C708        H713   1.082       .  S
C709        C710   1.413       .  A
C710        C711   1.515       .  S
C711        F715   1.385       .  S
C711        F716   1.383       .  S
C711        F717   1.383       .  S
C714        F718   1.383       .  S
C714        F719   1.382       .  S
C714        F720   1.384       .  S
C721        C722   1.398       .  A
C721        C726   1.402       .  A
C721        H728   1.084       .  S
C722        C723   1.408       .  A
C723        C724   1.398       .  A
C723        C730   1.512       .  S
C724        C725   1.408       .  A
C724        H729   1.084       .  S
C725        C726   1.423       .  A
C726        C727   1.514       .  S
C727        F731   1.385       .  S
C727        F732   1.378       .  S
C727        F733   1.381       .  S
C730        F734   1.384       .  S
C730        F735   1.383       .  S
C730        F736   1.384       .  S
C737        C738   1.399       .  A
C737        C742   1.411       .  A
C737        H744   1.084       .  S
C738        C739   1.425       .  A
C739        C740   1.412       .  A
C739        C746   1.515       .  S
C740        C741   1.399       .  A
C740        H745   1.084       .  S
C741        C742   1.422       .  A
C742        C743   1.510       .  S
C743        F747   1.383       .  S
C743        F748   1.381       .  S
C743        F749   1.382       .  S
C746        F750   1.382       .  S
C746        F751   1.382       .  S
C746        F752   1.383       .  S
C753        C754   1.402       .  A
C753        C758   1.399       .  A
C753        H760   1.082       .  S
C754        C755   1.414       .  A
C755        C756   1.403       .  A
C755        C762   1.518       .  S
C756        C757   1.406       .  A
C756        H761   1.083       .  S
C757        C758   1.422       .  A
C758        C759   1.522       .  S
C759        F763   1.385       .  S
C759        F764   1.382       .  S
C759        F765   1.383       .  S
C762        F766   1.378       .  S
C762        F767   1.383       .  S
C762        F768   1.385       .  S
C769        C770   1.412       .  A
C769        C774   1.398       .  A
C769        H776   1.083       .  S
C770        C771   1.413       .  A
C771        C772   1.414       .  A
C771        C778   1.513       .  S
C772        C773   1.409       .  A
C772        H777   1.083       .  S
C773        C774   1.404       .  A
C774        C775   1.517       .  S
C775        F779   1.385       .  S
C775        F780   1.383       .  S
C775        F781   1.382       .  S
C778        F782   1.383       .  S
C778        F783   1.380       .  S
C778        F784   1.384       .  S
C785        C786   1.404       .  A
C785        C790   1.394       .  A
C785        H792   1.085       .  S
C786        C787   1.415       .  A
C787        C788   1.399       .  A
C787        C794   1.515       .  S
C788        C789   1.402       .  A
C788        H793   1.085       .  S
C789        C790   1.411       .  A
C790        C791   1.516       .  S
C791        F795   1.383       .  S
C791        F796   1.384       .  S
C791        F797   1.382       .  S
C794        F798   1.384       .  S
C794        F799   1.383       .  S
C794        F800   1.383       .  S
C801        C802   1.405       .  A
C801        C806   1.401   1_455  A
C801        H808   1.083       .  S
C802        C803   1.422       .  A
C803        C804   1.403   1_455  A
C803        C810   1.520       .  S
C804        C805   1.401       .  A
C804        H809   1.084       .  S
C805        C806   1.413       .  A
C806        C807   1.514       .  S
C807        F811   1.385       .  S
C807        F812   1.375       .  S
C807        F813   1.382       .  S
C810        F814   1.382       .  S
C810        F815   1.384       .  S
C810        F816   1.385       .  S
C817        C818   1.412       .  A
C817        C822   1.419       .  A
C817        H824   1.083       .  S
C818        C819   1.411       .  A
C819        C820   1.399       .  A
C819        C826   1.518       .  S
C820        C821   1.409       .  A
C820        H825   1.084       .  S
C821        C822   1.414       .  A
C822        C823   1.513       .  S
C823        F827   1.383       .  S
C823        F828   1.383       .  S
C823        F829   1.385       .  S
C826        F830   1.384       .  S
C826        F831   1.381       .  S
C826        F832   1.384       .  S
C833        C834   1.394       .  A
C833        C838   1.404       .  A
C833        H840   1.085       .  S
C834        C835   1.426       .  A
C835        C836   1.409       .  A
C835        C842   1.521       .  S
C836        C837   1.399       .  A
C836        H841   1.084       .  S
C837        C838   1.429       .  A
C838        C839   1.519       .  S
C839        F843   1.384       .  S
C839        F844   1.383       .  S
C839        F845   1.375       .  S
C842        F846   1.381       .  S
C842        F847   1.381       .  S
C842        F848   1.385       .  S
C849        C850   1.402   1_565  A
C849        C854   1.404       .  A
C849        H856   1.084       .  S
C850        C851   1.414       .  A
C851        C852   1.402       .  A
C851        C858   1.514       .  S
C852        C853   1.405   1_545  A
C852        H857   1.084       .  S
C853        C854   1.419       .  A
C854        C855   1.512       .  S
C855        F859   1.382       .  S
C855        F860   1.385       .  S
C855        F861   1.378       .  S
C858        F862   1.384       .  S
C858        F863   1.381       .  S
C858        F864   1.384       .  S
C865        C866   1.409       .  A
C865        C870   1.403       .  A
C865        H872   1.081       .  S
C866        C867   1.408       .  A
C867        C868   1.409       .  A
C867        C874   1.517       .  S
C868        C869   1.414       .  A
C868        H873   1.083       .  S
C869        C870   1.408       .  A
C870        C871   1.516       .  S
C871        F875   1.385       .  S
C871        F876   1.383       .  S
C871        F877   1.383       .  S
C874        F878   1.384       .  S
C874        F879   1.383       .  S
C874        F880   1.384       .  S
C881        C882   1.398   1_565  A
C881        C886   1.403       .  A
C881        H888   1.084       .  S
C882        C883   1.406       .  A
C883        C884   1.395       .  A
C883        C890   1.512       .  S
C884        C885   1.409   1_545  A
C884        H889   1.084       .  S
C885        C886   1.425       .  A
C886        C887   1.517       .  S
C887        F891   1.384       .  S
C887        F892   1.378       .  S
C887        F893   1.382       .  S
C890        F894   1.384       .  S
C890        F895   1.382       .  S
C890        F896   1.383       .  S
C897        C898   1.392       .  A
C897        C902   1.406       .  A
C897        H904   1.085       .  S
C898        C899   1.424       .  A
C899        C900   1.410       .  A
C899        C906   1.511       .  S
C900        C901   1.398       .  A
C900        H905   1.084       .  S
C901        C902   1.428       .  A
C902        C903   1.510       .  S
C903        F907   1.384       .  S
C903        F908   1.377       .  S
C903        F909   1.382       .  S
C906        F910   1.380       .  S
C906        F911   1.382       .  S
C906        F912   1.383       .  S
C913        C914   1.403   1_565  A
C913        C918   1.406       .  A
C913        H920   1.085       .  S
C914        C915   1.409       .  A
C915        C916   1.397       .  A
C915        C922   1.514       .  S
C916        C917   1.406   1_545  A
C916        H921   1.083       .  S
C917        C918   1.420       .  A
C918        C919   1.515       .  S
C919        F923   1.385       .  S
C919        F924   1.384       .  S
C919        F925   1.380       .  S
C922        F926   1.384       .  S
C922        F927   1.383       .  S
C922        F928   1.383       .  S
C929        C930   1.398   1_565  A
C929        C934   1.403       .  A
C929        H936   1.083       .  S
C930        C931   1.409       .  A
C931        C932   1.399   1_655  A
C931        C938   1.515       .  S
C932        C933   1.410   1_545  A
C932        H937   1.083       .  S
C933        C934   1.428   1_455  A
C934        C935   1.521       .  S
C935        F939   1.385       .  S
C935        F940   1.378   1_655  S
C935        F941   1.383   1_655  S
C938        F942   1.384       .  S
C938        F943   1.383       .  S
C938        F944   1.383   1_655  S
C945        C946   1.399       .  A
C945        C950   1.395       .  A
C945        H952   1.084       .  S
C946        C947   1.418       .  A
C947        C948   1.422       .  A
C947        C954   1.512       .  S
C948        C949   1.411       .  A
C948        H953   1.080       .  S
C949        C950   1.427       .  A
C950        C951   1.526       .  S
C951        F955   1.386       .  S
C951        F956   1.380       .  S
C951        F957   1.382       .  S
C954        F958   1.377       .  S
C954        F959   1.382       .  S
C954        F960   1.385       .  S
C961        C962   1.402       .  A
C961        C966   1.403       .  A
C961        H968   1.084       .  S
C962        C963   1.432       .  A
C963        C964   1.411       .  A
C963        C970   1.521       .  S
C964        C965   1.398       .  A
C964        H969   1.083       .  S
C965        C966   1.422       .  A
C966        C967   1.518       .  S
C967        F971   1.385       .  S
C967        F972   1.383       .  S
C967        F973   1.382       .  S
C970        F974   1.382       .  S
C970        F975   1.383       .  S
C970        F976   1.385       .  S
C977        C978   1.400       .  A
C977        C982   1.411       .  A
C977        H984   1.084       .  S
C978        C979   1.409       .  A
C979        C980   1.414       .  A
C979        C986   1.517       .  S
C980        C981   1.414       .  A
C980        H985   1.083       .  S
C981        C982   1.427       .  A
C982        C983   1.519       .  S
C983        F987   1.385       .  S
C983        F988   1.378       .  S
C983        F989   1.384       .  S
C986        F990   1.380   1_455  S
C986        F991   1.383       .  S
C986        F992   1.384       .  S
C993        C994   1.406       .  A
C993        C998   1.407       .  A
C993       H1000   1.083       .  S
C994        C995   1.432       .  A
C995        C996   1.407       .  A
C995       C1002   1.521       .  S
C996        C997   1.399       .  A
C996       H1001   1.084       .  S
C997        C998   1.416       .  A
C998        C999   1.513       .  S
C999       F1003   1.385       .  S
C999       F1004   1.383       .  S
C999       F1005   1.380       .  S
C1002      F1006   1.378       .  S
C1002      F1007   1.382       .  S
C1002      F1008   1.385       .  S
C1009      C1010   1.398       .  A
C1009      C1014   1.412       .  A
C1009      H1016   1.084       .  S
C1010      C1011   1.415       .  A
C1011      C1012   1.417       .  A
C1011      C1018   1.517       .  S
C1012      C1013   1.412       .  A
C1012      H1017   1.082       .  S
C1013      C1014   1.432       .  A
C1014      C1015   1.521       .  S
C1015      F1019   1.386       .  S
C1015      F1020   1.384       .  S
C1015      F1021   1.383       .  S
C1018      F1022   1.383       .  S
C1018      F1023   1.379       .  S
C1018      F1024   1.385       .  S
C1025      C1026   1.414       .  A
C1025      C1030   1.408       .  A
C1025      H1032   1.082       .  S
C1026      C1027   1.420       .  A
C1027      C1028   1.411       .  A
C1027      C1034   1.520       .  S
C1028      C1029   1.411       .  A
C1028      H1033   1.082       .  S
C1029      C1030   1.415       .  A
C1030      C1031   1.519       .  S
C1031      F1035   1.384       .  S
C1031      F1036   1.383       .  S
C1031      F1037   1.382       .  S
C1034      F1038   1.383       .  S
C1034      F1039   1.382       .  S
C1034      F1040   1.385       .  S
C1041      C1042   1.397       .  A
C1041      C1046   1.407       .  A
C1041      H1048   1.084       .  S
C1042      C1043   1.407       .  A
C1043      C1044   1.411       .  A
C1043      C1050   1.516       .  S
C1044      C1045   1.411       .  A
C1044      H1049   1.083       .  S
C1045      C1046   1.428       .  A
C1046      C1047   1.518       .  S
C1047      F1051   1.385       .  S
C1047      F1052   1.377       .  S
C1047      F1053   1.384       .  S
C1050      F1054   1.381       .  S
C1050      F1055   1.383       .  S
C1050      F1056   1.384       .  S
C1057      C1058   1.403       .  A
C1057      C1062   1.406       .  A
C1057      H1064   1.082       .  S
C1058      C1059   1.417       .  A
C1059      C1060   1.406       .  A
C1059      C1066   1.516       .  S
C1060      C1061   1.407       .  A
C1060      H1065   1.082       .  S
C1061      C1062   1.428       .  A
C1062      C1063   1.518       .  S
C1063      F1067   1.385       .  S
C1063      F1068   1.376       .  S
C1063      F1069   1.381       .  S
C1066      F1070   1.385       .  S
C1066      F1071   1.377       .  S
C1066      F1072   1.383       .  S
C1073      C1074   1.394       .  A
C1073      C1078   1.403       .  A
C1073      H1080   1.083       .  S
C1074      C1075   1.420       .  A
C1075      C1076   1.409       .  A
C1075      C1082   1.517       .  S
C1076      C1077   1.401       .  A
C1076      H1081   1.083       .  S
C1077      C1078   1.427       .  A
C1078      C1079   1.519       .  S
C1079      F1083   1.385       .  S
C1079      F1084   1.382       .  S
C1079      F1085   1.379       .  S
C1082      F1086   1.381       .  S
C1082      F1087   1.380       .  S
C1082      F1088   1.384       .  S
C1089      C1090   1.401       .  A
C1089      C1094   1.413       .  A
C1089      H1096   1.082       .  S
C1090      C1091   1.413       .  A
C1091      C1092   1.407       .  A
C1091      C1098   1.520       .  S
C1092      C1093   1.413   1_655  A
C1092      H1097   1.085   1_655  S
C1093      C1094   1.425   1_455  A
C1094      C1095   1.519       .  S
C1095      F1099   1.384       .  S
C1095      F1100   1.382   1_655  S
C1095      F1101   1.383       .  S
C1098      F1102   1.382       .  S
C1098      F1103   1.382       .  S
C1098      F1104   1.383       .  S
C1105      C1106   1.399       .  A
C1105      C1110   1.409       .  A
C1105      H1112   1.084       .  S
C1106      C1107   1.417       .  A
C1107      C1108   1.410       .  A
C1107      C1114   1.514       .  S
C1108      C1109   1.405       .  A
C1108      H1113   1.083       .  S
C1109      C1110   1.430       .  A
C1110      C1111   1.521   1_565  S
C1111      F1115   1.385       .  S
C1111      F1116   1.382       .  S
C1111      F1117   1.383       .  S
C1114      F1118   1.383       .  S
C1114      F1119   1.382       .  S
C1114      F1120   1.384       .  S
C1121      C1122   1.412       .  A
C1121      C1126   1.410       .  A
C1121      H1128   1.083   1_545  S
C1122      C1123   1.426       .  A
C1123      C1124   1.407       .  A
C1123      C1130   1.520       .  S
C1124      C1125   1.399       .  A
C1124      H1129   1.084       .  S
C1125      C1126   1.408       .  A
C1126      C1127   1.517       .  S
C1127      F1131   1.384       .  S
C1127      F1132   1.382   1_455  S
C1127      F1133   1.383       .  S
C1130      F1134   1.378       .  S
C1130      F1135   1.384       .  S
C1130      F1136   1.385       .  S
C1137      C1138   1.407       .  A
C1137      C1142   1.403   1_455  A
C1137      H1144   1.083       .  S
C1138      C1139   1.424       .  A
C1139      C1140   1.399   1_455  A
C1139      C1146   1.520       .  S
C1140      C1141   1.397       .  A
C1140      H1145   1.083       .  S
C1141      C1142   1.412       .  A
C1142      C1143   1.517       .  S
C1143      F1147   1.384       .  S
C1143      F1148   1.375       .  S
C1143      F1149   1.383       .  S
C1146      F1150   1.383       .  S
C1146      F1151   1.384       .  S
C1146      F1152   1.384       .  S
C1153      C1154   1.404       .  A
C1153      C1158   1.406       .  A
C1153      H1160   1.082       .  S
C1154      C1155   1.426       .  A
C1155      C1156   1.415       .  A
C1155      C1162   1.519       .  S
C1156      C1157   1.402       .  A
C1156      H1161   1.083       .  S
C1157      C1158   1.415       .  A
C1158      C1159   1.515       .  S
C1159      F1163   1.384       .  S
C1159      F1164   1.383       .  S
C1159      F1165   1.380       .  S
C1162      F1166   1.384       .  S
C1162      F1167   1.383       .  S
C1162      F1168   1.385       .  S
C1169      C1170   1.403       .  A
C1169      C1174   1.405       .  A
C1169      H1176   1.084       .  S
C1170      C1171   1.417       .  A
C1171      C1172   1.404       .  A
C1171      C1178   1.520       .  S
C1172      C1173   1.407       .  A
C1172      H1177   1.084       .  S
C1173      C1174   1.423       .  A
C1174      C1175   1.522       .  S
C1175      F1179   1.385       .  S
C1175      F1180   1.379       .  S
C1175      F1181   1.382       .  S
C1178      F1182   1.380       .  S
C1178      F1183   1.383       .  S
C1178      F1184   1.382       .  S
C1185      C1186   1.403       .  A
C1185      C1190   1.408       .  A
C1185      H1192   1.085       .  S
C1186      C1187   1.421       .  A
C1187      C1188   1.406       .  A
C1187      C1194   1.516   1_565  S
C1188      C1189   1.401       .  A
C1188      H1193   1.085       .  S
C1189      C1190   1.421       .  A
C1190      C1191   1.518       .  S
C1191      F1195   1.384       .  S
C1191      F1196   1.383       .  S
C1191      F1197   1.383       .  S
C1194      F1198   1.384       .  S
C1194      F1199   1.383       .  S
C1194      F1200   1.383       .  S
C1201      C1202   1.405   1_656  A
C1201      C1206   1.414       .  A
C1201      H1208   1.083   1_655  S
C1202      C1203   1.426   1_455  A
C1203      C1204   1.418       .  A
C1203      C1210   1.517   1_655  S
C1204      C1205   1.404       .  A
C1204      H1209   1.084       .  S
C1205      C1206   1.421   1_554  A
C1206      C1207   1.513       .  S
C1207      F1211   1.385       .  S
C1207      F1212   1.383       .  S
C1207      F1213   1.377       .  S
C1210      F1214   1.383       .  S
C1210      F1215   1.383       .  S
C1210      F1216   1.385   1_455  S
C1217      C1218   1.405       .  A
C1217      C1222   1.406       .  A
C1217      H1224   1.083       .  S
C1218      C1219   1.420       .  A
C1219      C1220   1.408       .  A
C1219      C1226   1.520       .  S
C1220      C1221   1.406       .  A
C1220      H1225   1.084       .  S
C1221      C1222   1.417       .  A
C1222      C1223   1.518       .  S
C1223      F1227   1.385       .  S
C1223      F1228   1.382       .  S
C1223      F1229   1.383       .  S
C1226      F1230   1.380       .  S
C1226      F1231   1.383       .  S
C1226      F1232   1.386       .  S
C1233      C1234   1.397       .  A
C1233      C1238   1.407       .  A
C1233      H1240   1.085       .  S
C1234      C1235   1.425       .  A
C1235      C1236   1.405       .  A
C1235      C1242   1.515       .  S
C1236      C1237   1.396       .  A
C1236      H1241   1.085       .  S
C1237      C1238   1.427       .  A
C1238      C1239   1.519       .  S
C1239      F1243   1.383       .  S
C1239      F1244   1.381       .  S
C1239      F1245   1.383       .  S
C1242      F1246   1.383       .  S
C1242      F1247   1.378       .  S
C1242      F1248   1.383       .  S
C1249      C1250   1.416       .  A
C1249      C1254   1.416       .  A
C1249      H1256   1.082   1_545  S
C1250      C1251   1.426   1_556  A
C1251      C1252   1.414       .  A
C1251      C1258   1.518       .  S
C1252      C1253   1.403   1_554  A
C1252      H1257   1.083       .  S
C1253      C1254   1.411       .  A
C1254      C1255   1.520       .  S
C1255      F1259   1.384       .  S
C1255      F1260   1.381       .  S
C1255      F1261   1.382       .  S
C1258      F1262   1.377       .  S
C1258      F1263   1.384       .  S
C1258      F1264   1.385       .  S
C1265      C1266   1.400       .  A
C1265      C1270   1.407       .  A
C1265      H1272   1.083       .  S
C1266      C1267   1.430       .  A
C1267      C1268   1.404       .  A
C1267      C1274   1.524       .  S
C1268      C1269   1.398       .  A
C1268      H1273   1.083       .  S
C1269      C1270   1.427       .  A
C1270      C1271   1.521       .  S
C1271      F1275   1.385       .  S
C1271      F1276   1.383       .  S
C1271      F1277   1.382       .  S
C1274      F1278   1.383       .  S
C1274      F1279   1.385       .  S
C1274      F1280   1.383       .  S
C1281      C1282   1.409       .  A
C1281      C1286   1.415       .  A
C1281      H1288   1.082       .  S
C1282      C1283   1.429       .  A
C1283      C1284   1.409       .  A
C1283      C1290   1.519       .  S
C1284      C1285   1.397       .  A
C1284      H1289   1.084       .  S
C1285      C1286   1.416       .  A
C1286      C1287   1.516       .  S
C1287      F1291   1.384       .  S
C1287      F1292   1.383       .  S
C1287      F1293   1.378       .  S
C1290      F1294   1.384       .  S
C1290      F1295   1.382       .  S
C1290      F1296   1.385       .  S
C1297      C1298   1.398       .  A
C1297      C1302   1.413       .  A
C1297      H1304   1.084       .  S
C1298      C1299   1.414       .  A
C1299      C1300   1.412       .  A
C1299      C1306   1.517       .  S
C1300      C1301   1.409       .  A
C1300      H1305   1.083       .  S
C1301      C1302   1.429       .  A
C1302      C1303   1.519       .  S
C1303      F1307   1.385       .  S
C1303      F1308   1.384       .  S
C1303      F1309   1.382       .  S
C1306      F1310   1.384       .  S
C1306      F1311   1.381       .  S
C1306      F1312   1.384       .  S
C1313      C1314   1.399       .  A
C1313      C1318   1.404       .  A
C1313      H1320   1.083       .  S
C1314      C1315   1.418       .  A
C1315      C1316   1.409       .  A
C1315      C1322   1.516       .  S
C1316      C1317   1.405       .  A
C1316      H1321   1.083       .  S
C1317      C1318   1.422       .  A
C1318      C1319   1.514       .  S
C1319      F1323   1.385       .  S
C1319      F1324   1.382       .  S
C1319      F1325   1.377       .  S
C1322      F1326   1.384       .  S
C1322      F1327   1.376       .  S
C1322      F1328   1.384       .  S
C1329      C1330   1.414       .  A
C1329      C1334   1.408       .  A
C1329      H1336   1.082       .  S
C1330      C1331   1.416       .  A
C1331      C1332   1.410       .  A
C1331      C1338   1.518       .  S
C1332      C1333   1.413       .  A
C1332      H1337   1.082       .  S
C1333      C1334   1.415       .  A
C1334      C1335   1.519       .  S
C1335      F1339   1.385       .  S
C1335      F1340   1.383       .  S
C1335      F1341   1.382       .  S
C1338      F1342   1.383       .  S
C1338      F1343   1.381       .  S
C1338      F1344   1.385       .  S
C1345      C1346   1.409       .  A
C1345      C1350   1.410       .  A
C1345      H1352   1.085       .  S
C1346      C1347   1.421   1_554  A
C1347      C1348   1.413       .  A
C1347      C1354   1.517       .  S
C1348      C1349   1.403   1_556  A
C1348      H1353   1.081       .  S
C1349      C1350   1.418       .  A
C1350      C1351   1.518       .  S
C1351      F1355   1.381       .  S
C1351      F1356   1.382       .  S
C1351      F1357   1.382       .  S
C1354      F1358   1.380       .  S
C1354      F1359   1.383       .  S
C1354      F1360   1.385       .  S
C1361      C1362   1.397       .  A
C1361      C1366   1.406       .  A
C1361      H1368   1.084       .  S
C1362      C1363   1.408       .  A
C1363      C1364   1.396       .  A
C1363      C1370   1.508       .  S
C1364      C1365   1.405       .  A
C1364      H1369   1.084       .  S
C1365      C1366   1.426       .  A
C1366      C1367   1.515       .  S
C1367      F1371   1.384       .  S
C1367      F1372   1.378       .  S
C1367      F1373   1.382   1_554  S
C1370      F1374   1.383       .  S
C1370      F1375   1.384       .  S
C1370      F1376   1.382       .  S
C1377      C1378   1.397       .  A
C1377      C1382   1.409       .  A
C1377      H1384   1.083       .  S
C1378      C1379   1.428       .  A
C1379      C1380   1.404       .  A
C1379      C1386   1.518       .  S
C1380      C1381   1.394       .  A
C1380      H1385   1.085       .  S
C1381      C1382   1.427       .  A
C1382      C1383   1.520       .  S
C1383      F1387   1.385       .  S
C1383      F1388   1.380       .  S
C1383      F1389   1.378       .  S
C1386      F1390   1.383       .  S
C1386      F1391   1.377       .  S
C1386      F1392   1.385       .  S
C1393      C1394   1.400   1_554  A
C1393      C1398   1.409       .  A
C1393      H1400   1.083       .  S
C1394      C1395   1.411       .  A
C1395      C1396   1.417       .  A
C1395      C1402   1.517       .  S
C1396      C1397   1.413       .  A
C1396      H1401   1.082       .  S
C1397      C1398   1.425   1_556  A
C1398      C1399   1.515       .  S
C1399      F1403   1.385       .  S
C1399      F1404   1.375       .  S
C1399      F1405   1.383       .  S
C1402      F1406   1.381       .  S
C1402      F1407   1.383       .  S
C1402      F1408   1.384       .  S
C1409      C1410   1.403       .  A
C1409      C1414   1.406       .  A
C1409      H1416   1.083       .  S
C1410      C1411   1.423       .  A
C1411      C1412   1.406       .  A
C1411      C1418   1.517       .  S
C1412      C1413   1.401       .  A
C1412      H1417   1.083       .  S
C1413      C1414   1.419       .  A
C1414      C1415   1.515       .  S
C1415      F1419   1.385       .  S
C1415      F1420   1.383       .  S
C1415      F1421   1.375       .  S
C1418      F1422   1.382       .  S
C1418      F1423   1.377       .  S
C1418      F1424   1.385       .  S
C1425      C1426   1.405       .  A
C1425      C1430   1.410       .  A
C1425      H1432   1.085       .  S
C1426      C1427   1.427       .  A
C1427      C1428   1.409       .  A
C1427      C1434   1.522       .  S
C1428      C1429   1.401       .  A
C1428      H1433   1.084       .  S
C1429      C1430   1.419       .  A
C1430      C1431   1.517       .  S
C1431      F1435   1.383   1_565  S
C1431      F1436   1.383       .  S
C1431      F1437   1.383   1_565  S
C1434      F1438   1.378       .  S
C1434      F1439   1.382       .  S
C1434      F1440   1.385       .  S
C1441      C1442   1.409       .  A
C1441      C1446   1.415       .  A
C1441      H1448   1.083       .  S
C1442      C1443   1.422       .  A
C1443      C1444   1.408       .  A
C1443      C1450   1.512       .  S
C1444      C1445   1.402       .  A
C1444      H1449   1.083       .  S
C1445      C1446   1.414       .  A
C1446      C1447   1.514       .  S
C1447      F1451   1.384       .  S
C1447      F1452   1.378       .  S
C1447      F1453   1.383       .  S
C1450      F1454   1.373   1_545  S
C1450      F1455   1.382       .  S
C1450      F1456   1.385       .  S
C1457      C1458   1.407       .  A
C1457      C1462   1.407       .  A
C1457      H1464   1.083       .  S
C1458      C1459   1.424       .  A
C1459      C1460   1.403       .  A
C1459      C1466   1.521       .  S
C1460      C1461   1.403       .  A
C1460      H1465   1.083       .  S
C1461      C1462   1.413       .  A
C1462      C1463   1.516       .  S
C1463      F1467   1.384       .  S
C1463      F1468   1.378       .  S
C1463      F1469   1.384       .  S
C1466      F1470   1.382       .  S
C1466      F1471   1.384       .  S
C1466      F1472   1.385       .  S
C1473      C1474   1.413       .  A
C1473      C1478   1.418       .  A
C1473      H1480   1.082       .  S
C1474      C1475   1.422       .  A
C1475      C1476   1.412       .  A
C1475      C1482   1.515       .  S
C1476      C1477   1.403       .  A
C1476      H1481   1.083       .  S
C1477      C1478   1.415       .  A
C1478      C1479   1.517       .  S
C1479      F1483   1.385       .  S
C1479      F1484   1.380       .  S
C1479      F1485   1.383       .  S
C1482      F1486   1.376       .  S
C1482      F1487   1.383       .  S
C1482      F1488   1.385       .  S
C1489      C1490   1.405       .  A
C1489      C1494   1.409       .  A
C1489      H1496   1.084       .  S
C1490      C1491   1.419       .  A
C1491      C1492   1.402       .  A
C1491      C1498   1.519       .  S
C1492      C1493   1.404       .  A
C1492      H1497   1.083       .  S
C1493      C1494   1.420       .  A
C1494      C1495   1.520       .  S
C1495      F1499   1.385       .  S
C1495      F1500   1.381       .  S
C1495      F1501   1.383       .  S
C1498      F1502   1.378       .  S
C1498      F1503   1.382       .  S
C1498      F1504   1.385       .  S
C1505      C1506   1.405       .  A
C1505      C1510   1.406       .  A
C1505      H1512   1.083       .  S
C1506      C1507   1.416       .  A
C1507      C1508   1.408       .  A
C1507      C1514   1.518       .  S
C1508      C1509   1.407       .  A
C1508      H1513   1.084       .  S
C1509      C1510   1.418       .  A
C1510      C1511   1.520       .  S
C1511      F1515   1.385       .  S
C1511      F1516   1.383       .  S
C1511      F1517   1.382       .  S
C1514      F1518   1.383       .  S
C1514      F1519   1.383       .  S
C1514      F1520   1.384   1_565  S
C1521      C1522   1.412       .  A
C1521      C1526   1.417       .  A
C1521      H1528   1.083       .  S
C1522      C1523   1.422       .  A
C1523      C1524   1.410       .  A
C1523      C1530   1.520       .  S
C1524      C1525   1.404       .  A
C1524      H1529   1.083       .  S
C1525      C1526   1.415       .  A
C1526      C1527   1.518       .  S
C1527      F1531   1.385       .  S
C1527      F1532   1.383       .  S
C1527      F1533   1.383       .  S
C1530      F1534   1.382       .  S
C1530      F1535   1.382       .  S
C1530      F1536   1.385       .  S
C1537      C1538   1.402       .  A
C1537      C1542   1.405       .  A
C1537      H1544   1.084       .  S
C1538      C1539   1.412       .  A
C1539      C1540   1.402       .  A
C1539      C1546   1.519       .  S
C1540      C1541   1.408       .  A
C1540      H1545   1.083       .  S
C1541      C1542   1.421       .  A
C1542      C1543   1.519       .  S
C1543      F1547   1.385       .  S
C1543      F1548   1.382       .  S
C1543      F1549   1.381       .  S
C1546      F1550   1.383       .  S
C1546      F1551   1.381       .  S
C1546      F1552   1.385       .  S
C1553      C1554   1.401       .  A
C1553      C1558   1.404       .  A
C1553      H1560   1.084       .  S
C1554      C1555   1.410       .  A
C1555      C1556   1.397       .  A
C1555      C1562   1.514       .  S
C1556      C1557   1.407       .  A
C1556      H1561   1.084       .  S
C1557      C1558   1.422       .  A
C1558      C1559   1.516       .  S
C1559      F1563   1.385       .  S
C1559      F1564   1.383       .  S
C1559      F1565   1.379       .  S
C1562      F1566   1.383       .  S
C1562      F1567   1.384       .  S
C1562      F1568   1.384       .  S
C1569      C1570   1.410       .  A
C1569      C1574   1.402       .  A
C1569      H1576   1.082       .  S
C1570      C1571   1.408       .  A
C1571      C1572   1.409       .  A
C1571      C1578   1.516       .  S
C1572      C1573   1.412       .  A
C1572      H1577   1.083       .  S
C1573      C1574   1.406       .  A
C1574      C1575   1.517       .  S
C1575      F1579   1.385       .  S
C1575      F1580   1.383       .  S
C1575      F1581   1.383       .  S
C1578      F1582   1.384       .  S
C1578      F1583   1.383       .  S
C1578      F1584   1.385       .  S
C1585      C1586   1.414       .  A
C1585      C1590   1.414       .  A
C1585      H1592   1.083       .  S
C1586      C1587   1.425       .  A
C1587      C1588   1.409       .  A
C1587      C1594   1.517       .  S
C1588      C1589   1.401       .  A
C1588      H1593   1.084       .  S
C1589      C1590   1.410       .  A
C1590      C1591   1.519       .  S
C1591      F1595   1.384       .  S
C1591      F1596   1.381       .  S
C1591      F1597   1.382       .  S
C1594      F1598   1.378   1_545  S
C1594      F1599   1.383       .  S
C1594      F1600   1.385       .  S
C1601      C1602   1.395       .  A
C1601      C1606   1.406       .  A
C1601      H1608   1.083       .  S
C1602      C1603   1.419       .  A
C1603      C1604   1.410       .  A
C1603      C1610   1.517       .  S
C1604      C1605   1.406       .  A
C1604      H1609   1.083       .  S
C1605      C1606   1.428       .  A
C1606      C1607   1.517       .  S
C1607      F1611   1.385       .  S
C1607      F1612   1.377       .  S
C1607      F1613   1.383       .  S
C1610      F1614   1.384       .  S
C1610      F1615   1.383       .  S
C1610      F1616   1.385       .  S
C1617      C1618   1.406   1_655  A
C1617      C1622   1.411       .  A
C1617      H1624   1.082   1_655  S
C1618      C1619   1.423   1_455  A
C1619      C1620   1.412       .  A
C1619      C1626   1.518       .  S
C1620      C1621   1.402       .  A
C1620      H1625   1.082       .  S
C1621      C1622   1.417       .  A
C1622      C1623   1.517       .  S
C1623      F1627   1.385       .  S
C1623      F1628   1.382       .  S
C1623      F1629   1.383       .  S
C1626      F1630   1.384   1_655  S
C1626      F1631   1.383   1_655  S
C1626      F1632   1.385       .  S
C1633      C1634   1.402       .  A
C1633      C1638   1.406       .  A
C1633      H1640   1.083       .  S
C1634      C1635   1.418       .  A
C1635      C1636   1.402       .  A
C1635      C1642   1.517       .  S
C1636      C1637   1.403       .  A
C1636      H1641   1.083       .  S
C1637      C1638   1.423       .  A
C1638      C1639   1.522       .  S
C1639      F1643   1.385       .  S
C1639      F1644   1.381       .  S
C1639      F1645   1.383       .  S
C1642      F1646   1.376       .  S
C1642      F1647   1.382       .  S
C1642      F1648   1.385       .  S
C1649      C1650   1.404       .  A
C1649      C1654   1.405       .  A
C1649      H1656   1.084       .  S
C1650      C1651   1.423       .  A
C1651      C1652   1.412       .  A
C1651      C1658   1.518       .  S
C1652      C1653   1.402       .  A
C1652      H1657   1.080       .  S
C1653      C1654   1.415       .  A
C1654      C1655   1.515       .  S
C1655      F1659   1.384       .  S
C1655      F1660   1.383       .  S
C1655      F1661   1.381       .  S
C1658      F1662   1.383       .  S
C1658      F1663   1.381       .  S
C1658      F1664   1.385       .  S
C1665      C1666   1.401       .  A
C1665      C1670   1.407       .  A
C1665      H1672   1.084       .  S
C1666      C1667   1.421       .  A
C1667      C1668   1.411       .  A
C1667      C1674   1.517       .  S
C1668      C1669   1.404       .  A
C1668      H1673   1.084       .  S
C1669      C1670   1.425       .  A
C1670      C1671   1.519       .  S
C1671      F1675   1.384       .  S
C1671      F1676   1.380       .  S
C1671      F1677   1.383       .  S
C1674      F1678   1.384       .  S
C1674      F1679   1.383       .  S
C1674      F1680   1.385       .  S
C1681      C1682   1.406       .  A
C1681      C1686   1.408       .  A
C1681      H1688   1.081       .  S
C1682      C1683   1.425       .  A
C1683      C1684   1.408       .  A
C1683      C1690   1.518       .  S
C1684      C1685   1.399       .  A
C1684      H1689   1.080       .  S
C1685      C1686   1.414       .  A
C1686      C1687   1.516       .  S
C1687      F1691   1.383       .  S
C1687      F1692   1.384       .  S
C1687      F1693   1.380       .  S
C1690      F1694   1.383       .  S
C1690      F1695   1.383       .  S
C1690      F1696   1.385       .  S
C1697      C1698   1.412       .  A
C1697      C1702   1.416       .  A
C1697      H1704   1.083       .  S
C1698      C1699   1.432       .  A
C1699      C1700   1.410       .  A
C1699      C1706   1.521       .  S
C1700      C1701   1.396       .  A
C1700      H1705   1.083       .  S
C1701      C1702   1.415       .  A
C1702      C1703   1.517       .  S
C1703      F1707   1.385       .  S
C1703      F1708   1.383       .  S
C1703      F1709   1.380       .  S
C1706      F1710   1.384       .  S
C1706      F1711   1.383       .  S
C1706      F1712   1.385       .  S
C1713      C1714   1.405       .  A
C1713      C1718   1.407       .  A
C1713      H1720   1.083       .  S
C1714      C1715   1.420       .  A
C1715      C1716   1.404       .  A
C1715      C1722   1.519       .  S
C1716      C1717   1.401       .  A
C1716      H1721   1.083       .  S
C1717      C1718   1.418       .  A
C1718      C1719   1.520       .  S
C1719      F1723   1.385       .  S
C1719      F1724   1.380       .  S
C1719      F1725   1.383       .  S
C1722      F1726   1.380       .  S
C1722      F1727   1.382       .  S
C1722      F1728   1.385       .  S
C1729      C1730   1.396       .  A
C1729      C1734   1.408       .  A
C1729      H1736   1.085       .  S
C1730      C1731   1.424       .  A
C1731      C1732   1.409       .  A
C1731      C1738   1.512       .  S
C1732      C1733   1.398       .  A
C1732      H1737   1.085       .  S
C1733      C1734   1.426       .  A
C1734      C1735   1.515       .  S
C1735      F1739   1.382       .  S
C1735      F1740   1.381       .  S
C1735      F1741   1.382       .  S
C1738      F1742   1.384       .  S
C1738      F1743   1.381       .  S
C1738      F1744   1.383       .  S
C1745      C1746   1.402       .  A
C1745      C1750   1.411       .  A
C1745      H1752   1.083       .  S
C1746      C1747   1.433       .  A
C1747      C1748   1.405       .  A
C1747      C1754   1.522       .  S
C1748      C1749   1.394       .  A
C1748      H1753   1.083       .  S
C1749      C1750   1.425       .  A
C1750      C1751   1.520       .  S
C1751      F1755   1.385       .  S
C1751      F1756   1.382       .  S
C1751      F1757   1.384       .  S
C1754      F1758   1.385       .  S
C1754      F1759   1.383       .  S
C1754      F1760   1.383       .  S
C1761      C1762   1.412   1_545  A
C1761      C1766   1.418       .  A
C1761      H1768   1.083       .  S
C1762      C1763   1.428       .  A
C1763      C1764   1.416   1_565  A
C1763      C1770   1.520       .  S
C1764      C1765   1.403       .  A
C1764      H1769   1.081       .  S
C1765      C1766   1.414       .  A
C1766      C1767   1.515       .  S
C1767      F1771   1.383       .  S
C1767      F1772   1.382       .  S
C1767      F1773   1.383       .  S
C1770      F1774   1.380       .  S
C1770      F1775   1.383       .  S
C1770      F1776   1.385       .  S
C1777      C1778   1.400       .  A
C1777      C1782   1.415       .  A
C1777      H1784   1.083       .  S
C1778      C1779   1.415       .  A
C1779      C1780   1.413       .  A
C1779      C1786   1.516       .  S
C1780      C1781   1.408       .  A
C1780      H1785   1.082       .  S
C1781      C1782   1.433       .  A
C1782      C1783   1.521       .  S
C1783      F1787   1.385       .  S
C1783      F1788   1.380       .  S
C1783      F1789   1.382       .  S
C1786      F1790   1.383       .  S
C1786      F1791   1.381       .  S
C1786      F1792   1.384       .  S
C1793      C1794   1.407       .  A
C1793      C1798   1.411       .  A
C1793      H1800   1.083       .  S
C1794      C1795   1.421       .  A
C1795      C1796   1.404       .  A
C1795      C1802   1.515       .  S
C1796      C1797   1.403       .  A
C1796      H1801   1.084       .  S
C1797      C1798   1.419       .  A
C1798      C1799   1.519       .  S
C1799      F1803   1.377       .  S
C1799      F1804   1.384       .  S
C1799      F1805   1.383       .  S
C1802      F1806   1.383       .  S
C1802      F1807   1.384       .  S
C1802      F1808   1.383       .  S
C1809      C1810   1.400       .  A
C1809      C1814   1.398       .  A
C1809      H1816   1.096       .  S
C1810      C1811   1.415       .  A
C1811      C1812   1.398       .  A
C1811      C1818   1.516       .  S
C1812      C1813   1.402       .  A
C1812      H1817   1.098       .  S
C1813      C1814   1.423       .  A
C1814      C1815   1.521       .  S
C1815      F1819   1.382       .  S
C1815      F1820   1.384       .  S
C1815      F1821   1.385       .  S
C1818      F1822   1.377       .  S
C1818      F1823   1.383       .  S
C1818      F1824   1.385       .  S
C1825      C1826   1.403       .  A
C1825      C1830   1.406       .  A
C1825      H1832   1.082       .  S
C1826      C1827   1.431       .  A
C1827      C1828   1.408       .  A
C1827      C1834   1.522       .  S
C1828      C1829   1.398       .  A
C1828      H1833   1.082       .  S
C1829      C1830   1.423       .  A
C1830      C1831   1.521       .  S
C1831      F1835   1.385       .  S
C1831      F1836   1.383       .  S
C1831      F1837   1.384       .  S
C1834      F1838   1.383       .  S
C1834      F1839   1.383       .  S
C1834      F1840   1.385       .  S
C1841      C1842   1.400       .  A
C1841      C1846   1.411       .  A
C1841      H1848   1.084       .  S
C1842      C1843   1.417       .  A
C1843      C1844   1.409       .  A
C1843      C1850   1.518       .  S
C1844      C1845   1.406       .  A
C1844      H1849   1.083       .  S
C1845      C1846   1.424       .  A
C1846      C1847   1.518       .  S
C1847      F1851   1.385       .  S
C1847      F1852   1.384       .  S
C1847      F1853   1.380       .  S
C1850      F1854   1.383       .  S
C1850      F1855   1.381       .  S
C1850      F1856   1.385       .  S
C1857      C1858   1.406       .  A
C1857      C1862   1.407       .  A
C1857      H1864   1.084       .  S
C1858      C1859   1.419       .  A
C1859      C1860   1.406       .  A
C1859      C1866   1.518       .  S
C1860      C1861   1.407       .  A
C1860      H1865   1.084       .  S
C1861      C1862   1.420       .  A
C1862      C1863   1.518       .  S
C1863      F1867   1.384       .  S
C1863      F1868   1.382       .  S
C1863      F1869   1.384       .  S
C1866      F1870   1.382       .  S
C1866      F1871   1.384       .  S
C1866      F1872   1.382       .  S
C1873      C1874   1.411   1_545  A
C1873      C1878   1.406       .  A
C1873      H1880   1.081       .  S
C1874      C1875   1.427       .  A
C1875      C1876   1.418   1_565  A
C1875      C1882   1.519       .  S
C1876      C1877   1.404       .  A
C1876      H1881   1.083       .  S
C1877      C1878   1.412       .  A
C1878      C1879   1.517       .  S
C1879      F1883   1.384       .  S
C1879      F1884   1.381       .  S
C1879      F1885   1.384       .  S
C1882      F1886   1.383       .  S
C1882      F1887   1.384       .  S
C1882      F1888   1.384       .  S
C1889      C1890   1.395       .  A
C1889      C1894   1.406       .  A
C1889      H1896   1.084       .  S
C1890      C1891   1.423       .  A
C1891      C1892   1.409       .  A
C1891      C1898   1.516       .  S
C1892      C1893   1.399       .  A
C1892      H1897   1.084       .  S
C1893      C1894   1.429       .  A
C1894      C1895   1.519       .  S
C1895      F1899   1.385       .  S
C1895      F1900   1.381       .  S
C1895      F1901   1.379       .  S
C1898      F1902   1.383       .  S
C1898      F1903   1.381       .  S
C1898      F1904   1.384       .  S
C1905      C1906   1.409       .  A
C1905      C1910   1.411       .  A
C1905      H1912   1.083       .  S
C1906      C1907   1.417       .  A
C1907      C1908   1.411       .  A
C1907      C1914   1.519       .  S
C1908      C1909   1.409       .  A
C1908      H1913   1.083       .  S
C1909      C1910   1.420       .  A
C1910      C1911   1.520       .  S
C1911      F1915   1.381       .  S
C1911      F1916   1.383       .  S
C1911      F1917   1.385       .  S
C1914      F1918   1.380       .  S
C1914      F1919   1.383       .  S
C1914      F1920   1.385       .  S
C1921      C1922   1.409       .  A
C1921      C1926   1.409       .  A
C1921      H1928   1.083       .  S
C1922      C1923   1.429       .  A
C1923      C1924   1.412       .  A
C1923      C1930   1.520       .  S
C1924      C1925   1.399       .  A
C1924      H1929   1.084       .  S
C1925      C1926   1.415       .  A
C1926      C1927   1.520       .  S
C1927      F1931   1.385       .  S
C1927      F1932   1.383       .  S
C1927      F1933   1.383       .  S
C1930      F1934   1.382       .  S
C1930      F1935   1.382       .  S
C1930      F1936   1.385       .  S
C1937      C1938   1.402       .  A
C1937      C1942   1.406       .  A
C1937      H1944   1.080       .  S
C1938      C1939   1.418       .  A
C1939      C1940   1.419       .  A
C1939      C1946   1.517       .  S
C1940      C1941   1.410       .  A
C1940      H1945   1.084       .  S
C1941      C1942   1.419       .  A
C1942      C1943   1.519       .  S
C1943      F1947   1.385       .  S
C1943      F1948   1.379       .  S
C1943      F1949   1.383       .  S
C1946      F1950   1.383       .  S
C1946      F1951   1.383       .  S
C1946      F1952   1.385       .  S
C1953      C1954   1.413       .  A
C1953      C1958   1.419       .  A
C1953      H1960   1.083       .  S
C1954      C1955   1.429       .  A
C1955      C1956   1.393       .  A
C1955      C1962   1.525       .  S
C1956      C1957   1.391       .  A
C1956      H1961   1.080       .  S
C1957      C1958   1.412       .  A
C1958      C1959   1.513       .  S
C1959      F1963   1.384       .  S
C1959      F1964   1.382       .  S
C1959      F1965   1.383       .  S
C1962      F1966   1.381       .  S
C1962      F1967   1.376       .  S
C1962      F1968   1.385       .  S
C1969      C1970   1.409       .  A
C1969      C1974   1.405       .  A
C1969      H1976   1.082       .  S
C1970      C1971   1.424       .  A
C1971      C1972   1.402       .  A
C1971      C1978   1.510       .  S
C1972      C1973   1.396       .  A
C1972      H1977   1.082       .  S
C1973      C1974   1.412       .  A
C1974      C1975   1.516       .  S
C1975      F1979   1.384       .  S
C1975      F1980   1.374       .  S
C1975      F1981   1.383       .  S
C1978      F1982   1.376       .  S
C1978      F1983   1.383       .  S
C1978      F1984   1.385       .  S
C1985      C1986   1.402       .  A
C1985      C1990   1.414       .  A
C1985      H1992   1.083       .  S
C1986      C1987   1.426       .  A
C1987      C1988   1.408       .  A
C1987      C1994   1.514       .  S
C1988      C1989   1.400       .  A
C1988      H1993   1.084       .  S
C1989      C1990   1.426       .  A
C1990      C1991   1.518       .  S
C1991      F1995   1.385       .  S
C1991      F1996   1.383       .  S
C1991      F1997   1.382       .  S
C1994      F1998   1.378       .  S
C1994      F1999   1.383       .  S
C1994      F2000   1.384       .  S
C2001      C2002   1.410       .  A
C2001      C2006   1.397       .  A
C2001      H2008   1.083       .  S
C2002      C2003   1.416       .  A
C2003      C2004   1.422       .  A
C2003      C2010   1.514       .  S
C2004      C2005   1.413       .  A
C2004      H2009   1.084       .  S
C2005      C2006   1.409       .  A
C2006      C2007   1.518       .  S
C2007      F2011   1.384       .  S
C2007      F2012   1.383       .  S
C2007      F2013   1.381       .  S
C2010      F2014   1.383       .  S
C2010      F2015   1.383       .  S
C2010      F2016   1.385       .  S
C2017      C2018   1.396       .  A
C2017      C2022   1.410       .  A
C2017      H2024   1.082       .  S
C2018      C2019   1.414   1_554  A
C2019      C2020   1.414   1_556  A
C2019      C2026   1.515       .  S
C2020      C2021   1.409       .  A
C2020      H2025   1.082   1_554  S
C2021      C2022   1.433       .  A
C2022      C2023   1.523       .  S
C2023      F2027   1.385       .  S
C2023      F2028   1.384       .  S
C2023      F2029   1.382       .  S
C2026      F2030   1.383       .  S
C2026      F2031   1.378       .  S
C2026      F2032   1.384       .  S
C2033      C2034   1.409       .  A
C2033      C2038   1.409       .  A
C2033      H2040   1.083       .  S
C2034      C2035   1.423       .  A
C2035      C2036   1.406       .  A
C2035      C2042   1.518       .  S
C2036      C2037   1.402       .  A
C2036      H2041   1.084       .  S
C2037      C2038   1.418       .  A
C2038      C2039   1.520       .  S
C2039      F2043   1.385       .  S
C2039      F2044   1.383       .  S
C2039      F2045   1.383   1_556  S
C2042      F2046   1.378       .  S
C2042      F2047   1.381   1_556  S
C2042      F2048   1.385       .  S
C2049      C2050   1.412       .  A
C2049      C2054   1.424       .  A
C2049      H2056   1.083       .  S
C2050      C2051   1.420   1_556  A
C2051      C2052   1.404       .  A
C2051      C2058   1.511       .  S
C2052      C2053   1.403   1_554  A
C2052      H2057   1.084       .  S
C2053      C2054   1.418       .  A
C2054      C2055   1.514       .  S
C2055      F2059   1.384       .  S
C2055      F2060   1.381       .  S
C2055      F2061   1.383       .  S
C2058      F2062   1.385       .  S
C2058      F2063   1.379       .  S
C2058      F2064   1.382       .  S
C2065      C2066   1.409       .  A
C2065      C2070   1.408       .  A
C2065      H2072   1.083       .  S
C2066      C2067   1.408       .  A
C2067      C2068   1.411       .  A
C2067      C2074   1.516       .  S
C2068      C2069   1.419       .  A
C2068      H2073   1.081       .  S
C2069      C2070   1.421       .  A
C2070      C2071   1.521       .  S
C2071      F2075   1.385       .  S
C2071      F2076   1.383       .  S
C2071      F2077   1.383       .  S
C2074      F2078   1.383       .  S
C2074      F2079   1.381       .  S
C2074      F2080   1.384       .  S
C2081      C2082   1.402       .  A
C2081      C2086   1.414       .  A
C2081      H2088   1.084       .  S
C2082      C2083   1.415       .  A
C2083      C2084   1.409       .  A
C2083      C2090   1.516       .  S
C2084      C2085   1.406       .  A
C2084      H2089   1.083       .  S
C2085      C2086   1.425       .  A
C2086      C2087   1.519       .  S
C2087      F2091   1.385       .  S
C2087      F2092   1.384       .  S
C2087      F2093   1.382       .  S
C2090      F2094   1.383       .  S
C2090      F2095   1.382       .  S
C2090      F2096   1.385       .  S
C2097      C2098   1.408       .  A
C2097      C2102   1.406       .  A
C2097      H2104   1.084       .  S
C2098      C2099   1.422       .  A
C2099      C2100   1.406       .  A
C2099      C2106   1.519       .  S
C2100      C2101   1.405       .  A
C2100      H2105   1.084       .  S
C2101      C2102   1.418       .  A
C2102      C2103   1.518       .  S
C2103      F2107   1.381       .  S
C2103      F2108   1.384       .  S
C2103      F2109   1.385       .  S
C2106      F2110   1.382       .  S
C2106      F2111   1.383       .  S
C2106      F2112   1.385       .  S
C2113      C2114   1.414   1_655  A
C2113      C2118   1.421   1_565  A
C2113      H2120   1.082       .  S
C2114      C2115   1.434   1_565  A
C2115      C2116   1.414   1_455  A
C2115      C2122   1.520       .  S
C2116      C2117   1.397       .  A
C2116      H2121   1.082       .  S
C2117      C2118   1.417       .  A
C2118      C2119   1.516   1_545  S
C2119      F2123   1.384       .  S
C2119      F2124   1.383       .  S
C2119      F2125   1.381   1_565  S
C2122      F2126   1.384       .  S
C2122      F2127   1.382       .  S
C2122      F2128   1.384       .  S
C2129      C2130   1.409       .  A
C2129      C2134   1.395   1_455  A
C2129      H2136   1.084       .  S
C2130      C2131   1.423   1_455  A
C2131      C2132   1.405       .  A
C2131      C2138   1.520   1_655  S
C2132      C2133   1.401       .  A
C2132      H2137   1.084       .  S
C2133      C2134   1.405       .  A
C2134      C2135   1.513       .  S
C2135      F2139   1.382       .  S
C2135      F2140   1.383       .  S
C2135      F2141   1.385       .  S
C2138      F2142   1.380       .  S
C2138      F2143   1.381       .  S
C2138      F2144   1.381   1_455  S
C2145      C2146   1.398       .  A
C2145      C2150   1.403       .  A
C2145      H2152   1.083       .  S
C2146      C2147   1.427       .  A
C2147      C2148   1.408       .  A
C2147      C2154   1.520       .  S
C2148      C2149   1.400       .  A
C2148      H2153   1.083       .  S
C2149      C2150   1.428       .  A
C2150      C2151   1.521       .  S
C2151      F2155   1.386       .  S
C2151      F2156   1.383       .  S
C2151      F2157   1.384       .  S
C2154      F2158   1.382       .  S
C2154      F2159   1.384       .  S
C2154      F2160   1.385       .  S
C2161      C2162   1.400       .  A
C2161      C2166   1.397       .  A
C2161      H2168   1.081       .  S
C2162      C2163   1.414       .  A
C2163      C2164   1.402       .  A
C2163      C2170   1.516       .  S
C2164      C2165   1.405       .  A
C2164      H2169   1.083       .  S
C2165      C2166   1.423       .  A
C2166      C2167   1.522       .  S
C2167      F2171   1.385       .  S
C2167      F2172   1.381       .  S
C2167      F2173   1.383       .  S
C2170      F2174   1.379       .  S
C2170      F2175   1.383       .  S
C2170      F2176   1.385       .  S
C2177      C2178   1.398       .  A
C2177      C2182   1.406       .  A
C2177      H2184   1.084       .  S
C2178      C2179   1.426       .  A
C2179      C2180   1.403       .  A
C2179      C2186   1.518       .  S
C2180      C2181   1.395       .  A
C2180      H2185   1.085       .  S
C2181      C2182   1.423       .  A
C2182      C2183   1.517       .  S
C2183      F2187   1.385       .  S
C2183      F2188   1.382       .  S
C2183      F2189   1.378       .  S
C2186      F2190   1.383       .  S
C2186      F2191   1.381       .  S
C2186      F2192   1.384       .  S
C2193      C2194   1.413   1_545  A
C2193      C2198   1.415       .  A
C2193      H2200   1.083       .  S
C2194      C2195   1.426   1_554  A
C2195      C2196   1.412   1_565  A
C2195      C2202   1.520       .  S
C2196      C2197   1.401   1_556  A
C2196      H2201   1.081       .  S
C2197      C2198   1.412       .  A
C2198      C2199   1.516       .  S
C2199      F2203   1.384       .  S
C2199      F2204   1.381       .  S
C2199      F2205   1.383       .  S
C2202      F2206   1.383       .  S
C2202      F2207   1.382       .  S
C2202      F2208   1.385       .  S
C2209      C2210   1.411       .  A
C2209      C2214   1.419       .  A
C2209      H2216   1.083       .  S
C2210      C2211   1.420   1_556  A
C2211      C2212   1.404       .  A
C2211      C2218   1.515       .  S
C2212      C2213   1.402   1_554  A
C2212      H2217   1.084       .  S
C2213      C2214   1.413       .  A
C2214      C2215   1.514       .  S
C2215      F2219   1.384       .  S
C2215      F2220   1.381   1_455  S
C2215      F2221   1.384       .  S
C2218      F2222   1.379       .  S
C2218      F2223   1.383       .  S
C2218      F2224   1.385       .  S
C2225      C2226   1.407       .  A
C2225      C2230   1.402       .  A
C2225      H2232   1.084       .  S
C2226      C2227   1.427       .  A
C2227      C2228   1.405       .  A
C2227      C2234   1.518       .  S
C2228      C2229   1.400       .  A
C2228      H2233   1.084       .  S
C2229      C2230   1.411       .  A
C2230      C2231   1.511       .  S
C2231      F2235   1.384       .  S
C2231      F2236   1.384       .  S
C2231      F2237   1.383       .  S
C2234      F2238   1.379       .  S
C2234      F2239   1.382       .  S
C2234      F2240   1.385       .  S
