geometry optimzed in LAMMPS
_audit_creation_date              2020-12-01 
_audit_creation_method            'lammps2cif' 
_symmetry_space_group_name_H-M    'P1' 
_symmetry_Int_Tables_number       1 
_symmetry_cell_setting            triclinic 
loop_ 
_symmetry_equiv_pos_as_xyz 
  x,y,z 
_cell_length_a                    28.33305463 
_cell_length_b                    44.60324196050241 
_cell_length_c                    28.25746519317396 
_cell_angle_alpha                 89.77211600209978 
_cell_angle_beta                  89.56526614377042 
_cell_angle_gamma                 89.86493475123505 
loop_ 
_atom_site_label 
_atom_site_type_symbol 
_atom_site_fract_x 
_atom_site_fract_y 
_atom_site_fract_z 
_atom_site_charge 
O1          O  0.80983952  0.71593325  0.02270095    -0.82200
C2          C  0.89113160  0.64941865  0.87624071     0.97100
O3          O  0.90271941  0.64648164  0.91949919    -0.71400
O4          O  0.92408496  0.69592993  0.96196841    -0.74900
Al5        Al  0.87985863  0.66571850  0.97666331     1.49000
C6          C  0.92064229  0.72395104  0.96398738     0.92400
O7          O  0.82398584  0.73286191  0.89154265    -0.81200
O8          O  0.74194302  0.66747096  0.94470823    -0.74700
Al9        Al  0.81811577  0.72205233  0.95732397     1.90100
O10         O  0.77850753  0.69664247  0.86722484    -0.73800
O11         O  0.80667601  0.62386122  0.93152056    -0.73600
O12         O  0.85014329  0.65824370  0.86493672    -0.79300
O13         O  0.84406264  0.63166619  0.99704968    -0.77500
O14         O  0.83217239  0.68364931  0.94697502    -1.13600
O15         O  0.86519813  0.68270019  0.03826607    -0.72800
C16         C  0.83335136  0.70080353  0.05191609     0.97900
C17         C  0.79636907  0.72224079  0.86103315     0.94300
Al18       Al  0.79734067  0.66316172  0.90571101     1.55600
O19         O  0.88080971  0.73632375  0.96572825    -0.77500
C20         C  0.82198541  0.61422623  0.97036858     0.98400
C21         C  0.72691821  0.69300899  0.95773493     0.93300
O22         O  0.75204152  0.71625479  0.95324552    -0.82800
O23         O  0.80281750  0.29189883  0.99269809    -0.82200
C24         C  0.89411791  0.35771147  0.13181222     0.97100
O25         O  0.90332569  0.36032728  0.08775976    -0.71400
O26         O  0.92018672  0.31168296  0.04125495    -0.74900
Al27       Al  0.87522547  0.34224097  0.03214072     1.49000
C28         C  0.91722767  0.28364048  0.04095501     0.92400
O29         O  0.82570388  0.27487831  0.12121908    -0.81200
O30         O  0.73913440  0.34017603  0.07610745    -0.74700
Al31       Al  0.81533566  0.28573713  0.05660033     1.90100
O32         O  0.78222773  0.31124664  0.14945646    -0.73800
O33         O  0.80487263  0.38410840  0.08428928    -0.73600
O34         O  0.85348319  0.34963135  0.14608867    -0.79300
O35         O  0.83874172  0.37695356  0.01620551    -0.77500
O36         O  0.82981623  0.32424271  0.06576470    -1.13600
O37         O  0.85485833  0.32615483  0.97191900    -0.72800
C38         C  0.82281980  0.30754506  0.96137610     0.97900
C39         C  0.79968893  0.28538215  0.15354061     0.94300
Al40       Al  0.79781937  0.34466703  0.10994791     1.55600
O41         O  0.87757653  0.27115901  0.04312885    -0.77500
C42         C  0.81837375  0.39415286  0.04493366     0.98400
C43         C  0.72273726  0.31431238  0.06701123     0.93300
O44         O  0.74919296  0.29142062  0.06650091    -0.82800
O45         O  0.31782817  0.22083516  0.01701069    -0.82200
C46         C  0.39412721  0.14574171  0.88789465     0.97100
O47         O  0.40245503  0.14486016  0.93245708    -0.71400
O48         O  0.41700323  0.19045411  0.99044476    -0.74900
Al49       Al  0.36922282  0.16120291  0.98704593     1.49000
C50         C  0.42286462  0.21678308  0.97601432     0.92400
O51         O  0.33167562  0.22800743  0.88437790    -0.81200
O52         O  0.23936806  0.16993917  0.93926733    -0.74700
Al53       Al  0.32495537  0.22075172  0.95090281     1.90100
O54         O  0.28396640  0.19298860  0.86322835    -0.73800
O55         O  0.29782184  0.12174531  0.93006175    -0.73600
O56         O  0.35363032  0.15265352  0.87151483    -0.79300
O57         O  0.33162718  0.12656027  0.99736980    -0.77500
O58         O  0.33078398  0.18103057  0.94826495    -1.13600
O59         O  0.33976306  0.17649173  0.04342250    -0.72800
C60         C  0.32169431  0.20212610  0.05035407     0.97900
C61         C  0.30315922  0.21771314  0.85500420     0.94300
Al62       Al  0.29709846  0.16114699  0.90530313     1.55600
O63         O  0.39047910  0.23008481  0.95426299    -0.77500
C64         C  0.30976605  0.11071525  0.96868845     0.98400
C65         C  0.22805082  0.19647645  0.95199150     0.93300
O66         O  0.25741959  0.21804602  0.94906858    -0.82800
O67         O  0.30666473  0.79410621  0.98760002    -0.82200
C68         C  0.38824201  0.85999999  0.13311184     0.97100
O69         O  0.39846836  0.86397372  0.08963010    -0.71400
O70         O  0.42442147  0.81523683  0.04700230    -0.74900
Al71       Al  0.37692137  0.84392378  0.03316161     1.49000
C72         C  0.42275768  0.78766305  0.03855037     0.92400
O73         O  0.33369724  0.77348233  0.11406925    -0.81200
O74         O  0.23930350  0.83518758  0.07045138    -0.74700
Al75       Al  0.32080445  0.78555923  0.05071812     1.90100
O76         O  0.28594219  0.80723015  0.14489902    -0.73800
O77         O  0.29809975  0.88161159  0.08085664    -0.73600
O78         O  0.34845938  0.84969103  0.14543349    -0.79300
O79         O  0.33683642  0.87624038  0.01455424    -0.77500
O80         O  0.33152567  0.82400215  0.06336392    -1.13600
O81         O  0.36351377  0.82642495  0.97160871    -0.72800
C82         C  0.33089368  0.80893312  0.95829535     0.97900
C83         C  0.31029817  0.78356898  0.14874988     0.94300
Al84       Al  0.29564880  0.84209137  0.10680483     1.55600
O85         O  0.38373934  0.77468202  0.03432196    -0.77500
C86         C  0.31201998  0.89210466  0.04181730     0.98400
C87         C  0.22697141  0.80915097  0.05766542     0.93300
O88         O  0.25481103  0.78722479  0.06251303    -0.82800
O89         O  0.20595562  0.29119902  0.53117328    -0.82200
C90         C  0.13971916  0.35662928  0.38496970     0.97100
O91         O  0.12418368  0.34617097  0.42390684    -0.71400
O92         O  0.12130054  0.30710836  0.49517411    -0.74900
Al93       Al  0.15726573  0.34249929  0.48150974     1.49000
C94         C  0.12079970  0.28164836  0.47617575     0.92400
O95         O  0.23442737  0.27425883  0.40245454    -0.81200
O96         O  0.30083546  0.33158148  0.43263984    -0.74700
Al97       Al  0.21841381  0.28655348  0.46504028     1.90100
O98         O  0.23725287  0.31629720  0.36288226    -0.73800
O99         O  0.24895020  0.37996190  0.44961052    -0.73600
O100        O  0.18364446  0.36199830  0.37895149    -0.79300
O101        O  0.17716626  0.38322326  0.47631662    -0.77500
O102        O  0.20579531  0.32489695  0.45177240    -1.13600
O103        O  0.18859365  0.33922762  0.54134224    -0.72800
C104        C  0.20132434  0.31391865  0.55768417     0.97900
C105        C  0.23795754  0.28821482  0.36390118     0.94300
Al106      Al  0.23986069  0.34570313  0.40975986     1.55600
O107        O  0.15556680  0.27311676  0.45172176    -0.77500
C108        C  0.21610632  0.39530499  0.46729088     0.98400
C109        C  0.31221008  0.31167491  0.46275512     0.93300
O110        O  0.28162383  0.29425520  0.47992378    -0.82800
O111        O  0.21474115  0.72721298  0.49582995    -0.82200
C112        C  0.13885083  0.64881228  0.62345430     0.97100
O113        O  0.12714438  0.65005508  0.57984313    -0.71400
O114        O  0.10875205  0.69918411  0.53222823    -0.74900
Al115      Al  0.15545921  0.66901024  0.52507890     1.49000
C116        C  0.10854923  0.72596180  0.54537565     0.92400
O117        O  0.20346111  0.72931934  0.62847190    -0.81200
O118        O  0.29003146  0.67217943  0.56166823    -0.74700
Al119      Al  0.20877679  0.72540969  0.56145484     1.90100
O120        O  0.25260786  0.69338459  0.64421591    -0.73800
O121        O  0.23009592  0.62540107  0.56957004    -0.73600
O122        O  0.18081292  0.65433408  0.63703067    -0.79300
O123        O  0.18967457  0.63396069  0.50680816    -0.77500
O124        O  0.19916809  0.68586792  0.56146460    -1.13600
O125        O  0.18017343  0.68687323  0.46778165    -0.72800
C126        C  0.20407375  0.71062789  0.46158698     0.97900
C127        C  0.23309526  0.71763035  0.65572949     0.94300
Al128      Al  0.23496761  0.66326947  0.59948447     1.55600
O129        O  0.14552908  0.73811979  0.55935452    -0.77500
C130        C  0.21348845  0.61626248  0.53146553     0.98400
C131        C  0.30219631  0.69899073  0.55181401     0.93300
O132        O  0.27559429  0.72102420  0.56182419    -0.82800
O133        O  0.73924485  0.20889027  0.48881462    -0.82200
C134        C  0.64644762  0.15156111  0.63965170     0.97100
O135        O  0.63565775  0.14796657  0.59648295    -0.71400
O136        O  0.61882283  0.19850711  0.55342071    -0.74900
Al137      Al  0.66020575  0.16628577  0.53909803     1.49000
C138        C  0.62487459  0.22558256  0.54262193     0.92400
O139        O  0.71813212  0.23432724  0.61439659    -0.81200
O140        O  0.79897197  0.16469152  0.57578520    -0.74700
Al141      Al  0.72750144  0.21990523  0.55158424     1.90100
O142        O  0.75815941  0.19774021  0.64781288    -0.73800
O143        O  0.73107955  0.12345111  0.58720860    -0.73600
O144        O  0.68719075  0.16033309  0.65087900    -0.79300
O145        O  0.69420492  0.13126861  0.52076915    -0.77500
O146        O  0.70943953  0.18299217  0.56725770    -1.13600
O147        O  0.67530861  0.18212764  0.47651405    -0.72800
C148        C  0.71118824  0.19620390  0.46108084     0.97900
C149        C  0.74073271  0.22383147  0.64910274     0.94300
Al150      Al  0.74123459  0.16307004  0.61164090     1.55600
O151        O  0.66595566  0.23560552  0.53586164    -0.77500
C152        C  0.71576017  0.11383311  0.54833675     0.98400
C153        C  0.81739753  0.18923764  0.56278436     0.93300
O154        O  0.79336156  0.21311465  0.56151613    -0.82800
O155        O  0.71860563  0.79191727  0.52221930    -0.82200
C156        C  0.64041345  0.86081632  0.37836922     0.97100
O157        O  0.63041871  0.86453159  0.42200411    -0.71400
O158        O  0.60671456  0.81570095  0.46524581    -0.74900
Al159      Al  0.65297251  0.84467031  0.47848926     1.49000
C160        C  0.60862350  0.78761899  0.46376112     0.92400
O161        O  0.70640750  0.77692067  0.39068881    -0.81200
O162        O  0.78969843  0.84104558  0.44352772    -0.74700
Al163      Al  0.71134923  0.78714991  0.45657242     1.90100
O164        O  0.75294404  0.81273593  0.36655395    -0.73800
O165        O  0.72577111  0.88558758  0.43006273    -0.73600
O166        O  0.68087030  0.85145359  0.36533776    -0.79300
O167        O  0.69130731  0.87753604  0.49768183    -0.77500
O168        O  0.69911322  0.82587701  0.44712230    -1.13600
O169        O  0.66735127  0.82727726  0.53971054    -0.72800
C170        C  0.69739739  0.80781863  0.55229096     0.97900
C171        C  0.73489048  0.78729398  0.36032587     0.94300
Al172      Al  0.73430670  0.84609491  0.40501929     1.55600
O173        O  0.64773795  0.77425818  0.46347212    -0.77500
C174        C  0.71218452  0.89505474  0.46970517     0.98400
C175        C  0.80362303  0.81536660  0.45756666     0.93300
O176        O  0.77788389  0.79235531  0.45315825    -0.82800
C177        C  0.71944673  0.03181761  0.43049550    -0.18300
C178        C  0.71970537  0.00120619  0.41968335    -0.20400
C179        C  0.72079013  0.97957829  0.45591570     0.20200
C180        C  0.72222697  0.98889618  0.50352821    -0.03400
C181        C  0.72279697  0.01984258  0.51441823    -0.06400
C182        C  0.72079538  0.04139410  0.47772418     0.20500
C183        C  0.72456723  0.02918588  0.56201259     0.18700
C184        C  0.72558354  0.00754243  0.59823726    -0.17900
C185        C  0.72419520  0.97692024  0.58748649    -0.20100
C186        C  0.72229994  0.96732868  0.54027915     0.20100
C187        C  0.71973116  0.93662799  0.52919974    -0.33100
C188        C  0.71825547  0.92717884  0.48178546     0.00800
C189        C  0.71953348  0.94883577  0.44537849    -0.24500
C190        C  0.71938100  0.07208745  0.48890915    -0.29000
C191        C  0.72094045  0.08160193  0.53628946     0.06500
C192        C  0.72431355  0.05996784  0.57258162    -0.27700
H193        H  0.71798631  0.04802121  0.40187134     0.11200
H194        H  0.71846154  0.99443855  0.38293078     0.12400
H195        H  0.72684190  0.01431015  0.63498785     0.11400
H196        H  0.72440270  0.96072205  0.61616032     0.10700
H197        H  0.71874607  0.92008927  0.55740734     0.16100
H198        H  0.71777552  0.94177877  0.40875798     0.12000
H199        H  0.71682200  0.08859151  0.46076604     0.14800
H200        H  0.72495955  0.06707234  0.60922037     0.14600
C201        C  0.43630211  0.78330081  0.44429136    -0.18300
C202        C  0.39304198  0.77032373  0.45648263    -0.20400
C203        C  0.39160466  0.74343887  0.48244157     0.20200
C204        C  0.43386646  0.72857859  0.49415572    -0.03400
C205        C  0.47755195  0.74156883  0.48152430    -0.06400
C206        C  0.47869232  0.76946950  0.45767228     0.20500
C207        C  0.52000408  0.72737869  0.49480283     0.18700
C208        C  0.51836580  0.69984405  0.51901429    -0.17900
C209        C  0.47500565  0.68706332  0.53183798    -0.20100
C210        C  0.43253094  0.70153021  0.52049072     0.20100
C211        C  0.38896889  0.69033545  0.53702123    -0.33100
C212        C  0.34724584  0.70627842  0.52801533     0.00800
C213        C  0.34873121  0.73203759  0.49905219    -0.24500
C214        C  0.52205216  0.78371107  0.44965958    -0.29000
C215        C  0.56429362  0.77035107  0.46489606     0.06500
C216        C  0.56320403  0.74168286  0.48574552    -0.27700
H217        H  0.43659321  0.80456213  0.42558227     0.11200
H218        H  0.36071946  0.78182694  0.44701114     0.12400
H219        H  0.55067493  0.68861705  0.52929590     0.11400
H220        H  0.47473923  0.66626056  0.55176181     0.10700
H221        H  0.38784444  0.67043025  0.55912953     0.16100
H222        H  0.31642677  0.74410504  0.49125150     0.12000
H223        H  0.52283009  0.80568310  0.43307821     0.14800
H224        H  0.59572911  0.73135323  0.49762230     0.14600
C225        C  0.97797948  0.82071996  0.45533506    -0.18300
C226        C  0.02103025  0.80739828  0.46765384    -0.20400
C227        C  0.02246240  0.78389668  0.50086810     0.20200
C228        C  0.98037301  0.77444145  0.52324055    -0.03400
C229        C  0.93709353  0.78817260  0.51131892    -0.06400
C230        C  0.93564184  0.81095733  0.47631596     0.20500
C231        C  0.89499470  0.77796015  0.53263267     0.18700
C232        C  0.89646247  0.75520134  0.56704478    -0.17900
C233        C  0.93921404  0.74136548  0.57841495    -0.20100
C234        C  0.98117431  0.75031387  0.55590462     0.20100
C235        C  0.02356043  0.73486766  0.56410540    -0.33100
C236        C  0.06522443  0.74387170  0.54117600     0.00800
C237        C  0.06485547  0.76885885  0.51071948    -0.24500
C238        C  0.89174426  0.82224138  0.46110305    -0.29000
C239        C  0.84976432  0.81046926  0.48009752     0.06500
C240        C  0.85184703  0.78928251  0.51705047    -0.27700
H241        H  0.97768782  0.83816516  0.42854750     0.11200
H242        H  0.05308457  0.81491924  0.45019967     0.12400
H243        H  0.86429245  0.74738636  0.58397806     0.11400
H244        H  0.93928619  0.72317024  0.60394798     0.10700
H245        H  0.02411519  0.71558830  0.58762109     0.16100
H246        H  0.09717331  0.77552548  0.49279052     0.12000
H247        H  0.89016809  0.83837635  0.43236569     0.14800
H248        H  0.81944678  0.78006079  0.53159689     0.14600
C249        C  0.42185537  0.27071244  0.58057382    -0.18300
C250        C  0.46555664  0.25796519  0.59168826    -0.20400
C251        C  0.50309029  0.25905969  0.55907489     0.20200
C252        C  0.49709377  0.27421320  0.51551140    -0.03400
C253        C  0.45270116  0.28685796  0.50405973    -0.06400
C254        C  0.41480159  0.28457805  0.53648859     0.20500
C255        C  0.44570795  0.30063068  0.45949780     0.18700
C256        C  0.48385044  0.30251983  0.42754801    -0.17900
C257        C  0.52796746  0.29022495  0.43904931    -0.20100
C258        C  0.53480781  0.27563759  0.48264608     0.20100
C259        C  0.57793766  0.26139726  0.49323284    -0.33100
C260        C  0.58310493  0.24496331  0.53553000     0.00800
C261        C  0.54582061  0.24426221  0.56851204    -0.24500
C262        C  0.36991687  0.29487915  0.52351121    -0.29000
C263        C  0.36181096  0.30719089  0.47827968     0.06500
C264        C  0.40027552  0.31095889  0.44696411    -0.27700
H265        H  0.39313283  0.26897138  0.60597924     0.11200
H266        H  0.46968150  0.24666383  0.62542524     0.12400
H267        H  0.47931747  0.31298896  0.39321667     0.11400
H268        H  0.55646521  0.29151764  0.41333825     0.10700
H269        H  0.60648197  0.26157233  0.46744413     0.16100
H270        H  0.54978113  0.23154311  0.60104094     0.12000
H271        H  0.34058158  0.29208730  0.54802412     0.14800
H272        H  0.39431466  0.32019875  0.41197651     0.14600
C273        C  0.01742580  0.23518469  0.59507152    -0.18300
C274        C  0.97539011  0.22077288  0.60765377    -0.20400
C275        C  0.94424955  0.21096288  0.57264843     0.20200
C276        C  0.95637444  0.21478571  0.52436854    -0.03400
C277        C  0.99906192  0.22915651  0.51164212    -0.06400
C278        C  0.02910896  0.23989666  0.54727314     0.20500
C279        C  0.01068116  0.23393235  0.46341339     0.18700
C280        C  0.97963344  0.22382741  0.42844126    -0.17900
C281        C  0.93697621  0.20996547  0.44107600    -0.20100
C282        C  0.92475259  0.20568716  0.48889961     0.20100
C283        C  0.88040121  0.19413807  0.50199905    -0.33100
C284        C  0.86754104  0.19150867  0.54996190     0.00800
C285        C  0.90000028  0.19911438  0.58508570    -0.24500
C286        C  0.06943961  0.25616741  0.53459806    -0.29000
C287        C  0.08095869  0.26146271  0.48692324     0.06500
C288        C  0.05217207  0.24970707  0.45126316    -0.27700
H289        H  0.04036141  0.24321656  0.62277405     0.11200
H290        H  0.96661847  0.21804537  0.64481256     0.12400
H291        H  0.98778784  0.22730586  0.39130435     0.11400
H292        H  0.91309058  0.20313153  0.41342279     0.10700
H293        H  0.85469902  0.18903760  0.47502128     0.16100
H294        H  0.88934915  0.19796951  0.62200474     0.12000
H295        H  0.09150358  0.26538458  0.56194340     0.14800
H296        H  0.06078387  0.25412072  0.41444955     0.14600
C297        C  0.27572449  0.51413465  0.56445829    -0.18300
C298        C  0.27612484  0.48318697  0.55582576    -0.20400
C299        C  0.24973885  0.47107255  0.51866178     0.20200
C300        C  0.22292661  0.49053700  0.48971889    -0.03400
C301        C  0.22287942  0.52185441  0.49818658    -0.06400
C302        C  0.24912616  0.53366655  0.53596522     0.20500
C303        C  0.19587419  0.54123880  0.46939661     0.18700
C304        C  0.16942495  0.52914882  0.43225227    -0.17900
C305        C  0.16911413  0.49818175  0.42414215    -0.20100
C306        C  0.19550361  0.47868077  0.45279868     0.20100
C307        C  0.19439185  0.44752575  0.44561432    -0.33100
C308        C  0.22101591  0.42801683  0.47414635     0.00800
C309        C  0.24901718  0.43988252  0.51036670    -0.24500
C310        C  0.24745582  0.56465705  0.54529724    -0.29000
C311        C  0.21982778  0.58419864  0.51741578     0.06500
C312        C  0.19479386  0.57222481  0.47894913    -0.27700
H313        H  0.29603537  0.52278492  0.59370539     0.11200
H314        H  0.29677109  0.46867944  0.57854917     0.12400
H315        H  0.14845554  0.54362812  0.40978196     0.11400
H316        H  0.14794978  0.48945311  0.39556790     0.10700
H317        H  0.17256311  0.43831169  0.41787738     0.16100
H318        H  0.26902529  0.42480964  0.53279360     0.12000
H319        H  0.26680295  0.57344537  0.57511865     0.14800
H320        H  0.17311252  0.58685719  0.45739282     0.14600
C321        C  0.59048956  0.87393190  0.21183097    -0.18300
C322        C  0.55498005  0.87419478  0.17765660    -0.20400
C323        C  0.50739279  0.87120201  0.19099229     0.20200
C324        C  0.49539492  0.86834228  0.23935476    -0.03400
C325        C  0.53124364  0.86838513  0.27392923    -0.06400
C326        C  0.57906997  0.87085293  0.26002489     0.20500
C327        C  0.51929914  0.86523001  0.32224799     0.18700
C328        C  0.47171519  0.86204346  0.33558930    -0.17900
C329        C  0.43627619  0.86167056  0.30131909    -0.20100
C330        C  0.44773794  0.86471139  0.25309906     0.20100
C331        C  0.41257146  0.86339313  0.21834189    -0.33100
C332        C  0.42431988  0.86573712  0.16988945     0.00800
C333        C  0.47182137  0.87015399  0.15669360    -0.24500
C334        C  0.61466615  0.86942882  0.29438309    -0.29000
C335        C  0.60309030  0.86596893  0.34260649     0.06500
C336        C  0.55519606  0.86444648  0.35624231    -0.27700
H337        H  0.62697815  0.87585556  0.20049752     0.11200
H338        H  0.56482205  0.87631414  0.14066864     0.12400
H339        H  0.46195044  0.85940170  0.37252145     0.11400
H340        H  0.39990777  0.85873719  0.31251720     0.10700
H341        H  0.37618807  0.85978064  0.22900912     0.16100
H342        H  0.48145322  0.87154794  0.11954984     0.12000
H343        H  0.65140663  0.87049247  0.28352349     0.14800
H344        H  0.54586357  0.86130504  0.39321078     0.14600
C345        C  0.35724128  0.74319585  0.76991235    -0.18300
C346        C  0.37226633  0.75814031  0.81054624    -0.20400
C347        C  0.34045031  0.77553910  0.83710663     0.20200
C348        C  0.29321976  0.77843648  0.82190671    -0.03400
C349        C  0.27820787  0.76364497  0.78057802    -0.06400
C350        C  0.31024180  0.74559710  0.75491462     0.20500
C351        C  0.23093352  0.76642546  0.76551468     0.18700
C352        C  0.19913224  0.78385388  0.79204329    -0.17900
C353        C  0.21370477  0.79790936  0.83361486    -0.20100
C354        C  0.26052173  0.79517505  0.84895815     0.20100
C355        C  0.27462242  0.80759562  0.89206168    -0.33100
C356        C  0.32108487  0.80392352  0.90806907     0.00800
C357        C  0.35429184  0.78875059  0.87986949    -0.24500
C358        C  0.29464783  0.73013277  0.71487592    -0.29000
C359        C  0.24778079  0.73305745  0.69934678     0.06500
C360        C  0.21621719  0.75148708  0.72450940    -0.27700
H361        H  0.38231385  0.72953293  0.75042012     0.11200
H362        H  0.40854977  0.75557863  0.82175023     0.12400
H363        H  0.16274436  0.78619381  0.78107633     0.11400
H364        H  0.18819129  0.81064806  0.85408318     0.10700
H365        H  0.24886055  0.81875139  0.91452978     0.16100
H366        H  0.38971848  0.78516779  0.89307109     0.12000
H367        H  0.31928647  0.71625559  0.69514079     0.14800
H368        H  0.18009402  0.75376409  0.71259821     0.14600
C369        C  0.23893419  0.69009844  0.29206240    -0.18300
C370        C  0.25742151  0.69953983  0.24835300    -0.20400
C371        C  0.27819041  0.72795421  0.24356109     0.20200
C372        C  0.28187717  0.74659474  0.28366661    -0.03400
C373        C  0.26299384  0.73716860  0.32752702    -0.06400
C374        C  0.24075376  0.70894615  0.33168772     0.20500
C375        C  0.26512742  0.75643009  0.36683714     0.18700
C376        C  0.28728045  0.78441779  0.36268221    -0.17900
C377        C  0.30584443  0.79379032  0.31927615    -0.20100
C378        C  0.30240876  0.77530444  0.27948486     0.20100
C379        C  0.31633237  0.78584724  0.23502454    -0.33100
C380        C  0.30956767  0.76831804  0.19463419     0.00800
C381        C  0.29261147  0.73889308  0.19901893    -0.24500
C382        C  0.22043615  0.70027568  0.37523795    -0.29000
C383        C  0.22212884  0.71960980  0.41437456     0.06500
C384        C  0.24460277  0.74761660  0.40961989    -0.27700
H385        H  0.22237842  0.66827709  0.29463961     0.11200
H386        H  0.25443675  0.68490145  0.21802195     0.12400
H387        H  0.28941671  0.79930953  0.39279516     0.11400
H388        H  0.32171748  0.81582215  0.31651889     0.10700
H389        H  0.32939428  0.80858949  0.23123696     0.16100
H390        H  0.28696563  0.72561063  0.16751923     0.12000
H391        H  0.20376191  0.67852737  0.37875369     0.14800
H392        H  0.24635661  0.76277711  0.43945160     0.14600
C393        C  0.29007953  0.02740634  0.08320221    -0.18300
C394        C  0.28937840  0.99665067  0.09317679    -0.20400
C395        C  0.29255903  0.97561103  0.05645695     0.20200
C396        C  0.29492880  0.98563717  0.00909284    -0.03400
C397        C  0.29472705  0.01671832  0.99897067    -0.06400
C398        C  0.29336628  0.03768294  0.03629798     0.20500
C399        C  0.29747030  0.02678837  0.95163727     0.18700
C400        C  0.29978336  0.00571456  0.91487606    -0.17900
C401        C  0.30087164  0.97494540  0.92495782    -0.20100
C402        C  0.29910703  0.96466632  0.97195498     0.20100
C403        C  0.30302825  0.93391897  0.98256711    -0.33100
C404        C  0.30187949  0.92384917  0.02979967     0.00800
C405        C  0.29520304  0.94480107  0.06640809    -0.24500
C406        C  0.29679479  0.06848038  0.02618085    -0.29000
C407        C  0.30051364  0.07866546  0.97916892     0.06500
C408        C  0.29951893  0.05770446  0.94202337    -0.27700
H409        H  0.28872296  0.04316896  0.11226047     0.11200
H410        H  0.28748984  0.98931907  0.12974383     0.12400
H411        H  0.30186008  0.01304877  0.87832080     0.11400
H412        H  0.30379591  0.95919206  0.89598781     0.10700
H413        H  0.30792183  0.91788635  0.95420221     0.16100
H414        H  0.29463376  0.93726039  0.10293693     0.12000
H415        H  0.29737040  0.08452565  0.05489375     0.14800
H416        H  0.30282102  0.06538967  0.90569703     0.14600
C417        C  0.31424034  0.19173639  0.22558251    -0.18300
C418        C  0.30200850  0.20379839  0.26975807    -0.20400
C419        C  0.27681513  0.23089542  0.27275886     0.20200
C420        C  0.26292417  0.24562045  0.23078145    -0.03400
C421        C  0.27521547  0.23347452  0.18636513    -0.06400
C422        C  0.30150321  0.20655896  0.18362501     0.20500
C423        C  0.26240739  0.24882272  0.14472366     0.18700
C424        C  0.23646593  0.27558394  0.14747534    -0.17900
C425        C  0.22424277  0.28757377  0.19137034    -0.20100
C426        C  0.23796122  0.27301247  0.23309725     0.20100
C427        C  0.22849449  0.28596202  0.27702489    -0.33100
C428        C  0.24354767  0.27203196  0.31890148     0.00800
C429        C  0.26656967  0.24408770  0.31678696    -0.24500
C430        C  0.31559946  0.19549475  0.13906720    -0.29000
C431        C  0.30422969  0.21139893  0.09758137     0.06500
C432        C  0.27695511  0.23773632  0.10094828    -0.27700
H433        H  0.33432884  0.17105406  0.22425513     0.11200
H434        H  0.31294331  0.19217872  0.30159590     0.12400
H435        H  0.22651226  0.28759641  0.11568233     0.11400
H436        H  0.20491786  0.30855918  0.19268956     0.10700
H437        H  0.21024940  0.30734854  0.27860763     0.16100
H438        H  0.27831755  0.23335968  0.34912676     0.12000
H439        H  0.33654868  0.17518030  0.13679247     0.14800
H440        H  0.26789419  0.25025600  0.06937282     0.14600
C441        C  0.32301329  0.29968599  0.73579358    -0.18300
C442        C  0.30694298  0.31462303  0.69513898    -0.20400
C443        C  0.26472298  0.30592947  0.67337753     0.20200
C444        C  0.23810037  0.28225660  0.69338940    -0.03400
C445        C  0.25473764  0.26686359  0.73368169    -0.06400
C446        C  0.29748450  0.27551413  0.75508772     0.20500
C447        C  0.22898392  0.24233959  0.75185458     0.18700
C448        C  0.18649701  0.23380612  0.73074852    -0.17900
C449        C  0.16989242  0.24913086  0.69116307    -0.20100
C450        C  0.19570847  0.27308043  0.67199566     0.20100
C451        C  0.18119851  0.28675365  0.63012203    -0.33100
C452        C  0.20882439  0.30888157  0.60832064     0.00800
C453        C  0.24987551  0.31917555  0.63060085    -0.24500
C454        C  0.31393414  0.25959281  0.79497409    -0.29000
C455        C  0.28847330  0.23480516  0.81260006     0.06500
C456        C  0.24613751  0.22648768  0.79066816    -0.27700
H457        H  0.35585500  0.30670961  0.75165703     0.11200
H458        H  0.32790064  0.33269909  0.68032400     0.12400
H459        H  0.16635907  0.21504018  0.74455181     0.11400
H460        H  0.13739609  0.24181793  0.67488361     0.10700
H461        H  0.15018767  0.27851130  0.61235189     0.16100
H462        H  0.27188323  0.33570539  0.61296159     0.12000
H463        H  0.34648677  0.26621693  0.81186153     0.14800
H464        H  0.22579859  0.20773920  0.80430935     0.14600
C465        C  0.48427079  0.12446775  0.69067426    -0.18300
C466        C  0.44908967  0.12328063  0.72566392    -0.20400
C467        C  0.45909551  0.13142948  0.77244821     0.20200
C468        C  0.50524062  0.14037812  0.78430318    -0.03400
C469        C  0.54071572  0.14172144  0.74890148    -0.06400
C470        C  0.53007796  0.13390143  0.70180017     0.20500
C471        C  0.58648271  0.15152019  0.76044931     0.18700
C472        C  0.59654149  0.15958905  0.80728127    -0.17900
C473        C  0.56145625  0.15817726  0.84236400    -0.20100
C474        C  0.51564556  0.14873302  0.83123093     0.20100
C475        C  0.47970465  0.14846298  0.86578686    -0.33100
C476        C  0.43323069  0.14062199  0.85378658     0.00800
C477        C  0.42342073  0.13170508  0.80718752    -0.24500
C478        C  0.56509206  0.13625115  0.66648494    -0.29000
C479        C  0.61068020  0.14642189  0.67754321     0.06500
C480        C  0.62111648  0.15369569  0.72482721    -0.27700
H481        H  0.47547024  0.11836685  0.65473439     0.11200
H482        H  0.41384888  0.11633560  0.71598444     0.12400
H483        H  0.63147023  0.16728179  0.81670214     0.11400
H484        H  0.57001208  0.16484158  0.87811518     0.10700
H485        H  0.48736091  0.15589797  0.90139981     0.16100
H486        H  0.38765215  0.12576244  0.79766254     0.12000
H487        H  0.55652846  0.13073696  0.63022847     0.14800
H488        H  0.65594847  0.16179591  0.73383011     0.14600
C489        C  0.13219086  0.26503922  0.04709985    -0.18300
C490        C  0.08871131  0.27736551  0.05995339    -0.20400
C491        C  0.04672689  0.26425100  0.04442799     0.20200
C492        C  0.04838805  0.23771620  0.01733715    -0.03400
C493        C  0.09249754  0.22525735  0.00423712    -0.06400
C494        C  0.13434762  0.23943281  0.01853861     0.20500
C495        C  0.09478328  0.19943084  0.97540292     0.18700
C496        C  0.05247459  0.18572728  0.96155086    -0.17900
C497        C  0.00861238  0.19807649  0.97462699    -0.20100
C498        C  0.00614717  0.22439674  0.00180205     0.20100
C499        C  0.96254996  0.23839276  0.01210108    -0.33100
C500        C  0.96118912  0.26580521  0.03679351     0.00800
C501        C  0.00332186  0.27802618  0.05388709    -0.24500
C502        C  0.17778569  0.22861715  0.00254867    -0.29000
C503        C  0.18083293  0.20385999  0.97199127     0.06500
C504        C  0.13920786  0.18862460  0.95965660    -0.27700
H505        H  0.16419376  0.27603959  0.05838695     0.11200
H506        H  0.08795529  0.29761861  0.08102073     0.12400
H507        H  0.05327788  0.16582887  0.93969730     0.11400
H508        H  0.97660098  0.18741453  0.96252731     0.10700
H509        H  0.93010704  0.22890920  0.99873003     0.16100
H510        H  0.00242687  0.29893669  0.07336774     0.12000
H511        H  0.20955023  0.24027838  0.01281589     0.14800
H512        H  0.14121298  0.16944289  0.93630381     0.14600
C513        C  0.54920021  0.29127989  0.94237678    -0.18300
C514        C  0.58993002  0.30656941  0.95647334    -0.20400
C515        C  0.60962255  0.30132863  0.00123509     0.20200
C516        C  0.58788652  0.28038860  0.03204733    -0.03400
C517        C  0.54742926  0.26450131  0.01742827    -0.06400
C518        C  0.52771583  0.27012135  0.97247791     0.20500
C519        C  0.52710131  0.24272234  0.04760837     0.18700
C520        C  0.54664867  0.23738128  0.09234532    -0.17900
C521        C  0.58641929  0.25323652  0.10693524    -0.20100
C522        C  0.60746236  0.27456791  0.07691867     0.20100
C523        C  0.64916766  0.28897915  0.09005983    -0.33100
C524        C  0.67225587  0.30878880  0.05890157     0.00800
C525        C  0.65186328  0.31544980  0.01488465    -0.24500
C526        C  0.48699730  0.25445879  0.95853144    -0.29000
C527        C  0.46690138  0.23258822  0.98842507     0.06500
C528        C  0.48750734  0.22668796  0.03264247    -0.27700
H529        H  0.53478110  0.29578478  0.90766135     0.11200
H530        H  0.60623961  0.32236188  0.93218136     0.12400
H531        H  0.53131622  0.22080631  0.11597539     0.11400
H532        H  0.60121085  0.24845259  0.14141718     0.10700
H533        H  0.66568643  0.28311100  0.12328650     0.16100
H534        H  0.67055749  0.32984294  0.99010021     0.12000
H535        H  0.47120669  0.25904320  0.92443056     0.14800
H536        H  0.47176064  0.21014280  0.05611530     0.14600
C537        C  0.94117191  0.37233049  0.29812363    -0.18300
C538        C  0.97549656  0.37205094  0.33341635    -0.20400
C539        C  0.02331831  0.36810736  0.32172244     0.20200
C540        C  0.03687367  0.36499500  0.27384494    -0.03400
C541        C  0.00206375  0.36523621  0.23807050    -0.06400
C542        C  0.95398595  0.36863153  0.25044220     0.20500
C543        C  0.01519656  0.36134924  0.19019379     0.18700
C544        C  0.06319487  0.35758825  0.17858035    -0.17900
C545        C  0.09769850  0.35739286  0.21402479    -0.20100
C546        C  0.08496096  0.36093376  0.26187201     0.20100
C547        C  0.11909368  0.35970660  0.29805066    -0.33100
C548        C  0.10547612  0.36192728  0.34605576     0.00800
C549        C  0.05752698  0.36647514  0.35728751    -0.24500
C550        C  0.91934765  0.36744276  0.21521607    -0.29000
C551        C  0.93176133  0.36291682  0.16744677     0.06500
C552        C  0.98000187  0.36044416  0.15510979    -0.27700
H553        H  0.90444272  0.37501549  0.30823073     0.11200
H554        H  0.96452941  0.37453233  0.37001319     0.12400
H555        H  0.07403356  0.35443734  0.14207804     0.11400
H556        H  0.13433817  0.35410942  0.20403318     0.10700
H557        H  0.15584216  0.35581599  0.28901179     0.16100
H558        H  0.04662998  0.36822295  0.39404459     0.12000
H559        H  0.88244569  0.36936315  0.22521226     0.14800
H560        H  0.99003076  0.35657352  0.11853910     0.14600
C561        C  0.66414735  0.24059466  0.30998517    -0.18300
C562        C  0.67757540  0.25464942  0.26768110    -0.20400
C563        C  0.72451508  0.25310443  0.25160082     0.20200
C564        C  0.75802608  0.23649417  0.27742046    -0.03400
C565        C  0.74463113  0.22268023  0.32045494    -0.06400
C566        C  0.69754134  0.22500343  0.33705555     0.20500
C567        C  0.77882308  0.20773794  0.34788372     0.18700
C568        C  0.82545434  0.20551058  0.33108330    -0.17900
C569        C  0.83852426  0.21869542  0.28794007    -0.20100
C570        C  0.80530143  0.23463621  0.26116539     0.20100
C571        C  0.81874551  0.24954162  0.21927243    -0.33100
C572        C  0.78587140  0.26718812  0.19484782     0.00800
C573        C  0.73885330  0.26863994  0.21092141    -0.24500
C574        C  0.68536530  0.21318983  0.38161700    -0.29000
C575        C  0.72006228  0.20008047  0.41018638     0.06500
C576        C  0.76631809  0.19668308  0.39270500    -0.27700
H577        H  0.62793355  0.24262403  0.32218655     0.11200
H578        H  0.65141731  0.26717438  0.24793744     0.12400
H579        H  0.85200771  0.19396620  0.35169349     0.11400
H580        H  0.87489098  0.21703729  0.27608168     0.10700
H581        H  0.85502676  0.24856558  0.20688610     0.16100
H582        H  0.71347831  0.28222186  0.19191585     0.12000
H583        H  0.64998595  0.21639636  0.39566787     0.14800
H584        H  0.79305939  0.18673731  0.41508983     0.14600
C585        C  0.69271418  0.25674700  0.80806132    -0.18300
C586        C  0.70436718  0.26906943  0.85184608    -0.20400
C587        C  0.74927450  0.28138394  0.85912197     0.20200
C588        C  0.78249328  0.28198319  0.82175802    -0.03400
C589        C  0.77073365  0.26953224  0.77753573    -0.06400
C590        C  0.72572561  0.25663661  0.77081810     0.20500
C591        C  0.80453634  0.26905889  0.74060572     0.18700
C592        C  0.84927558  0.28162833  0.74785567    -0.17900
C593        C  0.86086156  0.29406900  0.79166707    -0.20100
C594        C  0.82797410  0.29405917  0.82906383     0.20100
C595        C  0.84037001  0.30463831  0.87415714    -0.33100
C596        C  0.80807528  0.30262882  0.91198419     0.00800
C597        C  0.76217954  0.29188909  0.90373469    -0.24500
C598        C  0.71510495  0.24304704  0.72748599    -0.29000
C599        C  0.74901911  0.24205991  0.69118028     0.06500
C600        C  0.79345318  0.25518556  0.69763931    -0.27700
H601        H  0.65812962  0.24688129  0.80355506     0.11200
H602        H  0.67854231  0.26845223  0.88032991     0.12400
H603        H  0.87558930  0.28142715  0.71983178     0.11400
H604        H  0.89589829  0.30316960  0.79658278     0.10700
H605        H  0.87583284  0.31269273  0.88046428     0.16100
H606        H  0.73696433  0.29054761  0.93275693     0.12000
H607        H  0.68125310  0.23223229  0.72255331     0.14800
H608        H  0.81975646  0.25378655  0.66963352     0.14600
C609        C  0.93598297  0.64722773  0.70662714    -0.18300
C610        C  0.97071176  0.64694994  0.67112852    -0.20400
C611        C  0.01853325  0.64368467  0.68278957     0.20200
C612        C  0.03141635  0.64030008  0.73066592    -0.03400
C613        C  0.99634297  0.64054941  0.76650421    -0.06400
C614        C  0.94844778  0.64425950  0.75442311     0.20500
C615        C  0.00935108  0.63786387  0.81445557     0.18700
C616        C  0.05717020  0.63461001  0.82609736    -0.17900
C617        C  0.09189332  0.63443306  0.79063296    -0.20100
C618        C  0.07942792  0.63747582  0.74288581     0.20100
C619        C  0.11424592  0.63867334  0.70735968    -0.33100
C620        C  0.10184829  0.64279632  0.65964061     0.00800
C621        C  0.05375802  0.64469875  0.64759477    -0.24500
C622        C  0.91402152  0.64579083  0.79037122    -0.29000
C623        C  0.92675836  0.64381334  0.83839958     0.06500
C624        C  0.97452060  0.63933348  0.85000370    -0.27700
H625        H  0.89938612  0.65015854  0.69672380     0.11200
H626        H  0.96020468  0.64970027  0.63457103     0.12400
H627        H  0.06779454  0.63260414  0.86273035     0.11400
H628        H  0.12859984  0.63230349  0.80062210     0.10700
H629        H  0.15112822  0.63732736  0.71710078     0.16100
H630        H  0.04373429  0.64828230  0.61105034     0.12000
H631        H  0.87742107  0.64936787  0.78092654     0.14800
H632        H  0.98489583  0.63806203  0.88680610     0.14600
C633        C  0.05261620  0.82013792  0.04742589    -0.18300
C634        C  0.00925911  0.80806618  0.03342709    -0.20400
C635        C  0.00776125  0.78264604  0.00424498     0.20200
C636        C  0.05037437  0.76997225  0.98755004    -0.03400
C637        C  0.09399340  0.78220503  0.00147039    -0.06400
C638        C  0.09527077  0.80706682  0.03238853     0.20500
C639        C  0.13633154  0.76871366  0.98597510     0.18700
C640        C  0.13507524  0.74397697  0.95552611    -0.17900
C641        C  0.09196946  0.73175746  0.94205166    -0.20100
C642        C  0.04953590  0.74420961  0.95863488     0.20100
C643        C  0.00647638  0.73044334  0.94863653    -0.33100
C644        C  0.96408912  0.74200338  0.96704548     0.00800
C645        C  0.96468320  0.76876560  0.99333053    -0.24500
C646        C  0.13904655  0.81745612  0.04918297    -0.29000
C647        C  0.18097879  0.80281499  0.03571519     0.06500
C648        C  0.17927174  0.77926879  0.00280907    -0.27700
H649        H  0.05276101  0.83927134  0.07092505     0.11200
H650        H  0.97687921  0.81814717  0.04646216     0.12400
H651        H  0.16747352  0.73354266  0.94321963     0.11400
H652        H  0.09184466  0.71209924  0.91963221     0.10700
H653        H  0.00607736  0.70996195  0.92806108     0.16100
H654        H  0.93201262  0.77765304  0.00781917     0.12000
H655        H  0.14029885  0.83568607  0.07438700     0.14800
H656        H  0.21164365  0.76829675  0.99151806     0.14600
C657        C  0.55518734  0.69743093  0.93865493    -0.18300
C658        C  0.51277201  0.71222962  0.94895925    -0.20400
C659        C  0.51021246  0.73305142  0.98602007     0.20200
C660        C  0.55050262  0.73874923  0.01352195    -0.03400
C661        C  0.59304373  0.72346627  0.00362295    -0.06400
C662        C  0.59563765  0.70301737  0.96550003     0.20500
C663        C  0.63347842  0.72961105  0.03059936     0.18700
C664        C  0.63097515  0.75033474  0.06778884    -0.17900
C665        C  0.58892793  0.76569060  0.07729304    -0.20100
C666        C  0.54866382  0.76032471  0.05004382     0.20100
C667        C  0.50679306  0.77641497  0.05817789    -0.33100
C668        C  0.46653640  0.77052230  0.03116852     0.00800
C669        C  0.46829829  0.74866907  0.99552369    -0.24500
C670        C  0.63922786  0.68994530  0.95324372    -0.29000
C671        C  0.67988338  0.69755513  0.97836833     0.06500
C672        C  0.67643051  0.71635608  0.01804643    -0.27700
H673        H  0.55653796  0.68196650  0.90920059     0.11200
H674        H  0.48212706  0.70775210  0.92741648     0.12400
H675        H  0.66187401  0.75520791  0.08877089     0.11400
H676        H  0.58805606  0.78202615  0.10557236     0.10700
H677        H  0.50532336  0.79331980  0.08563966     0.16100
H678        H  0.43732601  0.74450342  0.97421825     0.12000
H679        H  0.64223586  0.67595882  0.92206440     0.14800
H680        H  0.70813699  0.72251962  0.03691373     0.14600
C681        C  0.82101982  0.49974093  0.09761987    -0.18300
C682        C  0.82261335  0.53050908  0.08741357    -0.20400
C683        C  0.81804141  0.54088921  0.04067993     0.20200
C684        C  0.81123375  0.51994087  0.00398484    -0.03400
C685        C  0.81050951  0.48881129  0.01417592    -0.06400
C686        C  0.81541385  0.47869689  0.06123215     0.20500
C687        C  0.80581436  0.46782764  0.97716666     0.18700
C688        C  0.80024478  0.47822057  0.93058305    -0.17900
C689        C  0.80007574  0.50901286  0.92062139    -0.20100
C690        C  0.80603258  0.53003176  0.95696036     0.20100
C691        C  0.80781815  0.56089190  0.94688791    -0.33100
C692        C  0.81597920  0.58197289  0.98293520     0.00800
C693        C  0.82090001  0.57173214  0.02987770    -0.24500
C694        C  0.81571219  0.44773679  0.07093534    -0.29000
C695        C  0.81279026  0.42661929  0.03408984     0.06500
C696        C  0.80766643  0.43688296  0.98726314    -0.27700
H697        H  0.82489817  0.49237220  0.13396924     0.11200
H698        H  0.82768592  0.54619347  0.11609982     0.12400
H699        H  0.79632838  0.46250875  0.90174286     0.11400
H700        H  0.79599803  0.51638350  0.88429603     0.10700
H701        H  0.80444597  0.56843285  0.91054591     0.16100
H702        H  0.82714235  0.58773218  0.05790719     0.12000
H703        H  0.82020537  0.44002990  0.10706802     0.14800
H704        H  0.80529309  0.42078107  0.95874573     0.14600
C705        C  0.67050960  0.75726281  0.75465785    -0.18300
C706        C  0.65595671  0.77045039  0.71209448    -0.20400
C707        C  0.68925153  0.78226035  0.68008774     0.20200
C708        C  0.73766809  0.78160274  0.69199438    -0.03400
C709        C  0.75232799  0.76859003  0.73524262    -0.06400
C710        C  0.71860264  0.75585894  0.76622066     0.20500
C711        C  0.80082024  0.76748063  0.74675744     0.18700
C712        C  0.83406401  0.77961843  0.71501292    -0.17900
C713        C  0.81962099  0.79212119  0.67192777    -0.20100
C714        C  0.77162358  0.79293359  0.65992552     0.20100
C715        C  0.75721429  0.80363623  0.61556168    -0.33100
C716        C  0.70942643  0.80308470  0.60255991     0.00800
C717        C  0.67533221  0.79335072  0.63550943    -0.24500
C718        C  0.73365383  0.74129605  0.80760440    -0.29000
C719        C  0.78185338  0.73985756  0.81912694     0.06500
C720        C  0.81523666  0.75352816  0.78910955    -0.27700
H721        H  0.64414955  0.74774276  0.77824846     0.11200
H722        H  0.61870896  0.77076217  0.70370146     0.12400
H723        H  0.87137234  0.77891335  0.72308578     0.11400
H724        H  0.84611838  0.80069306  0.64758051     0.07500
H725        H  0.78339491  0.81145042  0.59026641     0.16100
H726        H  0.63854707  0.79257198  0.62529990     0.12000
H727        H  0.70785988  0.73081854  0.83087776     0.14800
H728        H  0.85240531  0.75216206  0.79772031     0.14600
C729        C  0.86001999  0.75935842  0.24681402    -0.18300
C730        C  0.87476719  0.74601712  0.20444338    -0.20400
C731        C  0.84258207  0.73029944  0.17641367     0.20200
C732        C  0.79530083  0.72722447  0.19210922    -0.03400
C733        C  0.78053420  0.74039384  0.23525818    -0.06400
C734        C  0.81290643  0.75702048  0.26214419     0.20500
C735        C  0.73309525  0.73776677  0.25067402     0.18700
C736        C  0.70106999  0.72169371  0.22288180    -0.17900
C737        C  0.71547131  0.70913792  0.17970729    -0.20100
C738        C  0.76232745  0.71207603  0.16377656     0.20100
C739        C  0.77627976  0.70140207  0.11908537    -0.33100
C740        C  0.82281614  0.70537359  0.10256992     0.00800
C741        C  0.85620830  0.71895266  0.13194012    -0.24500
C742        C  0.79738273  0.77169912  0.30322222    -0.29000
C743        C  0.75010287  0.76964741  0.31854019     0.06500
C744        C  0.71832025  0.75201032  0.29277318    -0.27700
H745        H  0.88534934  0.77193573  0.26725396     0.11200
H746        H  0.91112052  0.74863455  0.19301404     0.12400
H747        H  0.66456990  0.71942054  0.23400137     0.11400
H748        H  0.68971777  0.69755631  0.15835449     0.10700
H749        H  0.75049965  0.69105936  0.09620172     0.16100
H750        H  0.89180699  0.72255674  0.11877720     0.12000
H751        H  0.82214746  0.78499718  0.32329836     0.14800
H752        H  0.68184612  0.75045085  0.30436700     0.14600
loop_ 
_geom_bond_atom_site_label_1 
_geom_bond_atom_site_label_2 
_geom_bond_distance 
_geom_bond_site_symmetry_2 
_ccdc_geom_bond_type 
O1           C16   1.258       .  A
O1           Al9   1.879   1_554  S
C2           O12   1.268       .  A
C2            O3   1.274       .  A
C2          C623   1.486       .  S
O3           Al5   1.938       .  S
O4            C6   1.255       .  A
O4           Al5   1.885       .  S
Al5          O13   1.913       .  S
Al5          O15   1.943   1_556  S
Al5          O14   1.782       .  S
C6           O19   1.256       .  A
C6          C644   1.476       .  S
O7           C17   1.263       .  A
O7           Al9   1.925       .  S
O8           C21   1.270       .  A
O8          Al18   1.921       .  S
Al9          O22   1.895       .  S
Al9          O19   1.905       .  S
Al9          O14   1.782       .  S
O10          C17   1.261       .  A
O10         Al18   1.921       .  S
O11          C20   1.257       .  A
O11         Al18   1.914       .  S
O12         Al18   1.894       .  S
O13          C20   1.257       .  A
O14         Al18   1.789       .  S
O15          C16   1.268       .  A
C16         C740   1.475       .  S
C17         C719   1.479       .  S
C20         C692   1.490       .  S
C21          O22   1.264       .  A
C21         C671   1.465       .  S
O23          C38   1.257       .  A
O23         Al31   1.862   1_556  S
C24          O34   1.270       .  A
C24          O25   1.275       .  A
C24         C551   1.492       .  S
O25         Al27   1.946       .  S
O26          C28   1.254       .  A
O26         Al27   1.882       .  S
Al27         O35   1.914       .  S
Al27         O37   1.942   1_554  S
Al27         O36   1.784       .  S
C28          O41   1.256       .  A
C28         C500   1.481       .  S
O29          C39   1.260       .  A
O29         Al31   1.912       .  S
O30          C43   1.273       .  A
O30         Al40   1.936       .  S
Al31         O44   1.909       .  S
Al31         O41   1.914       .  S
Al31         O36   1.787       .  S
O32          C39   1.259       .  A
O32         Al40   1.909       .  S
O33          C42   1.255       .  A
O33         Al40   1.910       .  S
O34         Al40   1.899       .  S
O35          C42   1.256       .  A
O36         Al40   1.788       .  S
O37          C38   1.269       .  A
C38         C596   1.477       .  S
C39         C572   1.470       .  S
C42         C695   1.487       .  S
C43          O44   1.265       .  A
C43         C524   1.472       .  S
O45          C60   1.261       .  A
O45         Al53   1.877   1_554  S
C46          O56   1.277       .  A
C46          O47   1.283       .  A
C46         C476   1.481       .  S
O47         Al49   1.944       .  S
O48          C50   1.253       .  A
O48         Al49   1.886       .  S
Al49         O57   1.899       .  S
Al49         O59   1.920   1_556  S
Al49         O58   1.782       .  S
C50          O63   1.255       .  A
C50         C527   1.480       .  S
O51          C61   1.252       .  A
O51         Al53   1.914       .  S
O52          C65   1.278       .  A
O52         Al62   1.930       .  S
Al53         O66   1.919       .  S
Al53         O63   1.907       .  S
Al53         O58   1.781       .  S
O54          C61   1.251       .  A
O54         Al62   1.887       .  S
O55          C64   1.244       .  A
O55         Al62   1.889       .  S
O56         Al62   1.897       .  S
O57          C64   1.247       .  A
O58         Al62   1.789       .  S
O59          C60   1.267       .  A
C60         C431   1.480       .  S
C61         C455   1.479       .  S
C64         C407   1.482       .  S
C65          O66   1.276       .  A
C65         C503   1.485       .  S
O67          C82   1.258       .  A
O67         Al75   1.869   1_556  S
C68          O78   1.264       .  A
C68          O69   1.272       .  A
C68         C332   1.487       .  S
O69         Al71   1.936       .  S
O70          C72   1.255       .  A
O70         Al71   1.897       .  S
Al71         O79   1.908       .  S
Al71         O81   1.950   1_554  S
Al71         O80   1.776       .  S
C72          O85   1.256       .  A
C72         C668   1.470       .  S
O73          C83   1.263       .  A
O73         Al75   1.905       .  S
O74          C87   1.268       .  A
O74         Al84   1.931       .  S
Al75         O88   1.898       .  S
Al75         O85   1.901       .  S
Al75         O80   1.780       .  S
O76          C83   1.264       .  A
O76         Al84   1.907       .  S
O77          C86   1.258       .  A
O77         Al84   1.908       .  S
O78         Al84   1.891       .  S
O79          C86   1.258       .  A
O80         Al84   1.782       .  S
O81          C82   1.271       .  A
C82         C356   1.466       .  S
C83         C380   1.462       .  S
C86         C404   1.483       .  S
C87          O88   1.263       .  A
C87         C647   1.476       .  S
O89         C104   1.269       .  A
O89         Al97   1.911       .  S
C90         O100   1.278       .  A
C90          O91   1.269       .  A
C90         C548   1.490       .  S
O91         Al93   1.891       .  S
O92          C94   1.258       .  A
O92         Al93   1.917       .  S
Al93        O101   1.908       .  S
Al93        O103   1.920       .  S
Al93        O102   1.788       .  S
C94         O107   1.258       .  A
C94         C287   1.475       .  S
O95         C105   1.256       .  A
O95         Al97   1.905       .  S
O96         C109   1.270       .  A
O96        Al106   1.951       .  S
Al97        O110   1.876       .  S
Al97        O107   1.921       .  S
Al97        O102   1.785       .  S
O98         C105   1.253       .  A
O98        Al106   1.870       .  S
O99         C108   1.256       .  A
O99        Al106   1.921       .  S
O100       Al106   1.958       .  S
O101        C108   1.253       .  A
O102       Al106   1.783       .  S
O103        C104   1.270       .  A
C104        C452   1.465       .  S
C105        C428   1.472       .  S
C108        C308   1.480       .  S
C109        O110   1.259       .  A
C109        C263   1.488       .  S
O111        C126   1.259       .  A
O111       Al119   1.862       .  S
C112        O122   1.277       .  A
C112        O113   1.280       .  A
C112        C620   1.483       .  S
O113       Al115   1.931       .  S
O114        C116   1.252       .  A
O114       Al115   1.896       .  S
Al115       O123   1.908       .  S
Al115       O125   1.929       .  S
Al115       O124   1.785       .  S
C116        O129   1.248       .  A
C116        C236   1.468       .  S
O117        C127   1.255       .  A
O117       Al119   1.907       .  S
O118        C131   1.274       .  A
O118       Al128   1.926       .  S
Al119       O132   1.903       .  S
Al119       O129   1.880       .  S
Al119       O124   1.785       .  S
O120        C127   1.256       .  A
O120       Al128   1.918       .  S
O121        C130   1.249       .  A
O121       Al128   1.898       .  S
O122       Al128   1.901       .  S
O123        C130   1.251       .  A
O124       Al128   1.789       .  S
O125        C126   1.270       .  A
C126        C383   1.479       .  S
C127        C359   1.477       .  S
C130        C311   1.496       .  S
C131        O132   1.269       .  A
C131        C212   1.475       .  S
O133        C148   1.258       .  A
O133       Al141   1.870       .  S
C134        O144   1.263       .  A
C134        O135   1.271       .  A
C134        C479   1.486       .  S
O135       Al137   1.938       .  S
O136        C138   1.256       .  A
O136       Al137   1.896       .  S
Al137       O145   1.905       .  S
Al137       O147   1.947       .  S
Al137       O146   1.778       .  S
C138        O151   1.261       .  A
C138        C260   1.478       .  S
O139        C149   1.263       .  A
O139       Al141   1.907       .  S
O140        C153   1.266       .  A
O140       Al150   1.919       .  S
Al141       O154   1.912       .  S
Al141       O151   1.932       .  S
Al141       O146   1.779       .  S
O142        C149   1.264       .  A
O142       Al150   1.921       .  S
O143        C152   1.261       .  A
O143       Al150   1.923       .  S
O144       Al150   1.888       .  S
O145        C152   1.259       .  A
O146       Al150   1.783       .  S
O147        C148   1.270       .  A
C148        C575   1.468       .  S
C149        C599   1.464       .  S
C152        C191   1.485       .  S
C153        O154   1.263       .  A
C153        C284   1.467       .  S
O155        C170   1.257       .  A
O155       Al163   1.881       .  S
C156        O166   1.271       .  A
C156        O157   1.274       .  A
C156        C335   1.485       .  S
O157       Al159   1.935       .  S
O158        C160   1.254       .  A
O158       Al159   1.883       .  S
Al159       O167   1.909       .  S
Al159       O169   1.939       .  S
Al159       O168   1.783       .  S
C160        O173   1.257       .  A
C160        C215   1.475       .  S
O161        C171   1.261       .  A
O161       Al163   1.925       .  S
O162        C175   1.273       .  A
O162       Al172   1.929       .  S
Al163       O176   1.902       .  S
Al163       O173   1.901       .  S
Al163       O168   1.780       .  S
O164        C171   1.259       .  A
O164       Al172   1.917       .  S
O165        C174   1.256       .  A
O165       Al172   1.915       .  S
O166       Al172   1.905       .  S
O167        C174   1.255       .  A
O168       Al172   1.789       .  S
O169        C170   1.266       .  A
C170        C716   1.478       .  S
C171        C743   1.482       .  S
C174        C188   1.485       .  S
C175        O176   1.268       .  A
C175        C239   1.474       .  S
C177        C178   1.400       .  A
C177        C182   1.404       .  A
C177        H193   1.084       .  S
C178        C179   1.404   1_545  A
C178        H194   1.084   1_545  S
C179        C189   1.405       .  A
C179        C180   1.411       .  A
C180        C186   1.413       .  A
C180        C181   1.416   1_565  A
C181        C183   1.411       .  A
C181        C182   1.412       .  A
C182        C190   1.407       .  A
C183        C192   1.406       .  A
C183        C184   1.405       .  A
C184        C185   1.401   1_545  A
C184        H195   1.083       .  S
C185        C186   1.404       .  A
C185        H196   1.083       .  S
C186        C187   1.408       .  A
C187        C188   1.407       .  A
C187        H197   1.084       .  S
C188        C189   1.409       .  A
C189        H198   1.084       .  S
C190        C191   1.407       .  A
C190        H199   1.084       .  S
C191        C192   1.409       .  A
C192        H200   1.084       .  S
C201        C202   1.397       .  A
C201        C206   1.403       .  A
C201        H217   1.084       .  S
C202        C203   1.404       .  A
C202        H218   1.084       .  S
C203        C213   1.395       .  A
C203        C204   1.408       .  A
C204        C210   1.415       .  A
C204        C205   1.411       .  A
C205        C207   1.410       .  A
C205        C206   1.413       .  A
C206        C214   1.401       .  A
C207        C216   1.403       .  A
C207        C208   1.404       .  A
C208        C209   1.400       .  A
C208        H219   1.083       .  S
C209        C210   1.403       .  A
C209        H220   1.083       .  S
C210        C211   1.408       .  A
C211        C212   1.403       .  A
C211        H221   1.084       .  S
C212        C213   1.409       .  A
C213        H222   1.084       .  S
C214        C215   1.405       .  A
C214        H223   1.085       .  S
C215        C216   1.406       .  A
C216        H224   1.084       .  S
C225        C226   1.401   1_655  A
C225        C230   1.403       .  A
C225        H241   1.083       .  S
C226        C227   1.405       .  A
C226        H242   1.083       .  S
C227        C237   1.404       .  A
C227        C228   1.410   1_455  A
C228        C234   1.415       .  A
C228        C229   1.412       .  A
C229        C231   1.408       .  A
C229        C230   1.416       .  A
C230        C238   1.410       .  A
C231        C240   1.395       .  A
C231        C232   1.404       .  A
C232        C233   1.397       .  A
C232        H243   1.084       .  S
C233        C234   1.402       .  A
C233        H244   1.084       .  S
C234        C235   1.403   1_655  A
C235        C236   1.401       .  A
C235        H245   1.085       .  S
C236        C237   1.405       .  A
C237        H246   1.085       .  S
C238        C239   1.403       .  A
C238        H247   1.084       .  S
C239        C240   1.407       .  A
C240        H248   1.084       .  S
C249        C250   1.399       .  A
C249        C254   1.404       .  A
C249        H265   1.084       .  S
C250        C251   1.403       .  A
C250        H266   1.084       .  S
C251        C261   1.404       .  A
C251        C252   1.413       .  A
C252        C258   1.412       .  A
C252        C253   1.416       .  A
C253        C255   1.414       .  A
C253        C254   1.410       .  A
C254        C262   1.402       .  A
C255        C264   1.413       .  A
C255        C256   1.405       .  A
C256        C257   1.404       .  A
C256        H267   1.083       .  S
C257        C258   1.405       .  A
C257        H268   1.084       .  S
C258        C259   1.409       .  A
C259        C260   1.408       .  A
C259        H269   1.085       .  S
C260        C261   1.404       .  A
C261        H270   1.085       .  S
C262        C263   1.409       .  A
C262        H271   1.085       .  S
C263        C264   1.409       .  A
C264        H272   1.084       .  S
C273        C274   1.398   1_455  A
C273        C278   1.403       .  A
C273        H289   1.084       .  S
C274        C275   1.402       .  A
C274        H290   1.084       .  S
C275        C285   1.403       .  A
C275        C276   1.414       .  A
C276        C282   1.411       .  A
C276        C277   1.414       .  A
C277        C279   1.415   1_655  A
C277        C278   1.410   1_655  A
C278        C286   1.399       .  A
C279        C288   1.411       .  A
C279        C280   1.404   1_455  A
C280        C281   1.402       .  A
C280        H291   1.083       .  S
C281        C282   1.405       .  A
C281        H292   1.083       .  S
C282        C283   1.406       .  A
C283        C284   1.405       .  A
C283        H293   1.083       .  S
C284        C285   1.401       .  A
C285        H294   1.085       .  S
C286        C287   1.403       .  A
C286        H295   1.081       .  S
C287        C288   1.405       .  A
C288        H296   1.084       .  S
C297        C298   1.403       .  A
C297        C302   1.406       .  A
C297        H313   1.083       .  S
C298        C299   1.404       .  A
C298        H314   1.083       .  S
C299        C309   1.412       .  A
C299        C300   1.414       .  A
C300        C306   1.411       .  A
C300        C301   1.418       .  A
C301        C303   1.413       .  A
C301        C302   1.410       .  A
C302        C310   1.409       .  A
C303        C312   1.409       .  A
C303        C304   1.404       .  A
C304        C305   1.401       .  A
C304        H315   1.083       .  S
C305        C306   1.404       .  A
C305        H316   1.084       .  S
C306        C307   1.406       .  A
C307        C308   1.406       .  A
C307        H317   1.085       .  S
C308        C309   1.406       .  A
C309        H318   1.084       .  S
C310        C311   1.412       .  A
C310        H319   1.084       .  S
C311        C312   1.410       .  A
C312        H320   1.084       .  S
C321        C322   1.400       .  A
C321        C326   1.404       .  A
C321        H337   1.083       .  S
C322        C323   1.404       .  A
C322        H338   1.084       .  S
C323        C333   1.405       .  A
C323        C324   1.411       .  A
C324        C330   1.412       .  A
C324        C325   1.415       .  A
C325        C327   1.411       .  A
C325        C326   1.412       .  A
C326        C334   1.406       .  A
C327        C336   1.405       .  A
C327        C328   1.405       .  A
C328        C329   1.400       .  A
C328        H339   1.084       .  S
C329        C330   1.404       .  A
C329        H340   1.084       .  S
C330        C331   1.406       .  A
C331        C332   1.410       .  A
C331        H341   1.084       .  S
C332        C333   1.408       .  A
C333        H342   1.084       .  S
C334        C335   1.407       .  A
C334        H343   1.084       .  S
C335        C336   1.410       .  A
C336        H344   1.084       .  S
C345        C346   1.400       .  A
C345        C350   1.404       .  A
C345        H361   1.084       .  S
C346        C347   1.403       .  A
C346        H362   1.084       .  S
C347        C357   1.405       .  A
C347        C348   1.414       .  A
C348        C354   1.411       .  A
C348        C349   1.412       .  A
C349        C351   1.414       .  A
C349        C350   1.410       .  A
C350        C358   1.402       .  A
C351        C360   1.405       .  A
C351        C352   1.403       .  A
C352        C353   1.399       .  A
C352        H363   1.083       .  S
C353        C354   1.404       .  A
C353        H364   1.084       .  S
C354        C355   1.401       .  A
C355        C356   1.404       .  A
C355        H365   1.085       .  S
C356        C357   1.403       .  A
C357        H366   1.085       .  S
C358        C359   1.407       .  A
C358        H367   1.085       .  S
C359        C360   1.404       .  A
C360        H368   1.084       .  S
C369        C370   1.402       .  A
C369        C374   1.404       .  A
C369        H385   1.083       .  S
C370        C371   1.404       .  A
C370        H386   1.083       .  S
C371        C381   1.406       .  A
C371        C372   1.413       .  A
C372        C378   1.412       .  A
C372        C373   1.409       .  A
C373        C375   1.409       .  A
C373        C374   1.413       .  A
C374        C382   1.408       .  A
C375        C384   1.393       .  A
C375        C376   1.403       .  A
C376        C377   1.394       .  A
C376        H387   1.084       .  S
C377        C378   1.401       .  A
C377        H388   1.084       .  S
C378        C379   1.394       .  A
C379        C380   1.401       .  A
C379        H389   1.085       .  S
C380        C381   1.403       .  A
C381        H390   1.084       .  S
C382        C383   1.406       .  A
C382        H391   1.084       .  S
C383        C384   1.409       .  A
C384        H392   1.084       .  S
C393        C394   1.400   1_545  A
C393        C398   1.403       .  A
C393        H409   1.084       .  S
C394        C395   1.404       .  A
C394        H410   1.084       .  S
C395        C405   1.404       .  A
C395        C396   1.411       .  A
C396        C402   1.413   1_554  A
C396        C397   1.414   1_564  A
C397        C399   1.411       .  A
C397        C398   1.413   1_556  A
C398        C406   1.405       .  A
C399        C408   1.406       .  A
C399        C400   1.405       .  A
C400        C401   1.401   1_545  A
C400        H411   1.083       .  S
C401        C402   1.404       .  A
C401        H412   1.084       .  S
C402        C403   1.407       .  A
C403        C404   1.407   1_556  A
C403        H413   1.084       .  S
C404        C405   1.408       .  A
C405        H414   1.084       .  S
C406        C407   1.406   1_554  A
C406        H415   1.084       .  S
C407        C408   1.409       .  A
C408        H416   1.084       .  S
C417        C418   1.402       .  A
C417        C422   1.404       .  A
C417        H433   1.083       .  S
C418        C419   1.405       .  A
C418        H434   1.083       .  S
C419        C429   1.406       .  A
C419        C420   1.412       .  A
C420        C426   1.412       .  A
C420        C421   1.410       .  A
C421        C423   1.408       .  A
C421        C422   1.413       .  A
C422        C430   1.409       .  A
C423        C432   1.393       .  A
C423        C424   1.402       .  A
C424        C425   1.394       .  A
C424        H435   1.083       .  S
C425        C426   1.401       .  A
C425        H436   1.084       .  S
C426        C427   1.395       .  A
C427        C428   1.403       .  A
C427        H437   1.085       .  S
C428        C429   1.407       .  A
C429        H438   1.084       .  S
C430        C431   1.407       .  A
C430        H439   1.084       .  S
C431        C432   1.408       .  A
C432        H440   1.083       .  S
C441        C442   1.404       .  A
C441        C446   1.406       .  A
C441        H457   1.083       .  S
C442        C443   1.405       .  A
C442        H458   1.083       .  S
C443        C453   1.410       .  A
C443        C444   1.413       .  A
C444        C450   1.411       .  A
C444        C445   1.411       .  A
C445        C447   1.409       .  A
C445        C446   1.413       .  A
C446        C454   1.411       .  A
C447        C456   1.393       .  A
C447        C448   1.402       .  A
C448        C449   1.393       .  A
C448        H459   1.084       .  S
C449        C450   1.401       .  A
C449        H460   1.084       .  S
C450        C451   1.393       .  A
C451        C452   1.399       .  A
C451        H461   1.081       .  S
C452        C453   1.406       .  A
C453        H462   1.084       .  S
C454        C455   1.409       .  A
C454        H463   1.084       .  S
C455        C456   1.406       .  A
C456        H464   1.085       .  S
C465        C466   1.400       .  A
C465        C470   1.404       .  A
C465        H481   1.083       .  S
C466        C467   1.404       .  A
C466        H482   1.084       .  S
C467        C477   1.404       .  A
C467        C468   1.411       .  A
C468        C474   1.412       .  A
C468        C469   1.414       .  A
C469        C471   1.410       .  A
C469        C470   1.412       .  A
C470        C478   1.406       .  A
C471        C480   1.404       .  A
C471        C472   1.404       .  A
C472        C473   1.400       .  A
C472        H483   1.084       .  S
C473        C474   1.404       .  A
C473        H484   1.084       .  S
C474        C475   1.406       .  A
C475        C476   1.407       .  A
C475        H485   1.084       .  S
C476        C477   1.407       .  A
C477        H486   1.084       .  S
C478        C479   1.408       .  A
C478        H487   1.084       .  S
C479        C480   1.410       .  A
C480        H488   1.084       .  S
C489        C490   1.394       .  A
C489        C494   1.402       .  A
C489        H505   1.083       .  S
C490        C491   1.401       .  A
C490        H506   1.084       .  S
C491        C501   1.398       .  A
C491        C492   1.413       .  A
C492        C498   1.411       .  A
C492        C493   1.414       .  A
C493        C495   1.415   1_554  A
C493        C494   1.408       .  A
C494        C502   1.394       .  A
C495        C504   1.416       .  A
C495        C496   1.406       .  A
C496        C497   1.406       .  A
C496        H507   1.083       .  S
C497        C498   1.407   1_556  A
C497        H508   1.083   1_455  S
C498        C499   1.412   1_455  A
C499        C500   1.410       .  A
C499        H509   1.084   1_554  S
C500        C501   1.403   1_655  A
C501        H510   1.085       .  S
C502        C503   1.407   1_554  A
C502        H511   1.083       .  S
C503        C504   1.409       .  A
C504        H512   1.084       .  S
C513        C514   1.403       .  A
C513        C518   1.405       .  A
C513        H529   1.083       .  S
C514        C515   1.405   1_556  A
C514        H530   1.083       .  S
C515        C525   1.411       .  A
C515        C516   1.413       .  A
C516        C522   1.411       .  A
C516        C517   1.414       .  A
C517        C519   1.411       .  A
C517        C518   1.413   1_554  A
C518        C526   1.410       .  A
C519        C528   1.401       .  A
C519        C520   1.403       .  A
C520        C521   1.397       .  A
C520        H531   1.084       .  S
C521        C522   1.403       .  A
C521        H532   1.084       .  S
C522        C523   1.400       .  A
C523        C524   1.404       .  A
C523        H533   1.083       .  S
C524        C525   1.406       .  A
C525        H534   1.084   1_554  S
C526        C527   1.406       .  A
C526        H535   1.084       .  S
C527        C528   1.407   1_556  A
C528        H536   1.085       .  S
C537        C538   1.398       .  A
C537        C542   1.403       .  A
C537        H553   1.084       .  S
C538        C539   1.403   1_655  A
C538        H554   1.084       .  S
C539        C549   1.403       .  A
C539        C540   1.411       .  A
C540        C546   1.413       .  A
C540        C541   1.418       .  A
C541        C543   1.412       .  A
C541        C542   1.412   1_455  A
C542        C550   1.404       .  A
C543        C552   1.412   1_455  A
C543        C544   1.406       .  A
C544        C545   1.405       .  A
C544        H555   1.084       .  S
C545        C546   1.406       .  A
C545        H556   1.084       .  S
C546        C547   1.413       .  A
C547        C548   1.411       .  A
C547        H557   1.084       .  S
C548        C549   1.407       .  A
C549        H558   1.084       .  S
C550        C551   1.408       .  A
C550        H559   1.084       .  S
C551        C552   1.412       .  A
C552        H560   1.084       .  S
C561        C562   1.398       .  A
C561        C566   1.403       .  A
C561        H577   1.084       .  S
C562        C563   1.404       .  A
C562        H578   1.084       .  S
C563        C573   1.398       .  A
C563        C564   1.409       .  A
C564        C570   1.415       .  A
C564        C565   1.411       .  A
C565        C567   1.410       .  A
C565        C566   1.415       .  A
C566        C574   1.404       .  A
C567        C576   1.401       .  A
C567        C568   1.404       .  A
C568        C569   1.399       .  A
C568        H579   1.083       .  S
C569        C570   1.403       .  A
C569        H580   1.084       .  S
C570        C571   1.406       .  A
C571        C572   1.402       .  A
C571        H581   1.084       .  S
C572        C573   1.406       .  A
C573        H582   1.083       .  S
C574        C575   1.402       .  A
C574        H583   1.085       .  S
C575        C576   1.405       .  A
C576        H584   1.084       .  S
C585        C586   1.398       .  A
C585        C590   1.403       .  A
C585        H601   1.084       .  S
C586        C587   1.404       .  A
C586        H602   1.084       .  S
C587        C597   1.398       .  A
C587        C588   1.409       .  A
C588        C594   1.415       .  A
C588        C589   1.412       .  A
C589        C591   1.411       .  A
C589        C590   1.415       .  A
C590        C598   1.403       .  A
C591        C600   1.403       .  A
C591        C592   1.404       .  A
C592        C593   1.400       .  A
C592        H603   1.084       .  S
C593        C594   1.404       .  A
C593        H604   1.083       .  S
C594        C595   1.408       .  A
C595        C596   1.404       .  A
C595        H605   1.084       .  S
C596        C597   1.408       .  A
C597        H606   1.085       .  S
C598        C599   1.401       .  A
C598        H607   1.085       .  S
C599        C600   1.403       .  A
C600        H608   1.085       .  S
C609        C610   1.400       .  A
C609        C614   1.404       .  A
C609        H625   1.084       .  S
C610        C611   1.404   1_655  A
C610        H626   1.084       .  S
C611        C621   1.404       .  A
C611        C612   1.411       .  A
C612        C618   1.411       .  A
C612        C613   1.413   1_455  A
C613        C615   1.411   1_655  A
C613        C614   1.411       .  A
C614        C622   1.405       .  A
C615        C624   1.404   1_455  A
C615        C616   1.404       .  A
C616        C617   1.399       .  A
C616        H627   1.084       .  S
C617        C618   1.403       .  A
C617        H628   1.084       .  S
C618        C619   1.403       .  A
C619        C620   1.407       .  A
C619        H629   1.084       .  S
C620        C621   1.409       .  A
C621        H630   1.084       .  S
C622        C623   1.409       .  A
C622        H631   1.084       .  S
C623        C624   1.408       .  A
C624        H632   1.084       .  S
C633        C634   1.403       .  A
C633        C638   1.404       .  A
C633        H649   1.083       .  S
C634        C635   1.406       .  A
C634        H650   1.083   1_455  S
C635        C645   1.407   1_454  A
C635        C636   1.411   1_554  A
C636        C642   1.413       .  A
C636        C637   1.411   1_556  A
C637        C639   1.408   1_554  A
C637        C638   1.415       .  A
C638        C646   1.411       .  A
C639        C648   1.393   1_556  A
C639        C640   1.403       .  A
C640        C641   1.395       .  A
C640        H651   1.084       .  S
C641        C642   1.401       .  A
C641        H652   1.084       .  S
C642        C643   1.398       .  A
C643        C644   1.403   1_455  A
C643        H653   1.085       .  S
C644        C645   1.409       .  A
C645        H654   1.084   1_556  S
C646        C647   1.405       .  A
C646        H655   1.084       .  S
C647        C648   1.407       .  A
C648        H656   1.085   1_554  S
C657        C658   1.399       .  A
C657        C662   1.403       .  A
C657        H673   1.083       .  S
C658        C659   1.404       .  A
C658        H674   1.084       .  S
C659        C669   1.400       .  A
C659        C660   1.410   1_556  A
C660        C666   1.414       .  A
C660        C661   1.410       .  A
C661        C663   1.409       .  A
C661        C662   1.416   1_554  A
C662        C670   1.406       .  A
C663        C672   1.396       .  A
C663        C664   1.404       .  A
C664        C665   1.398       .  A
C664        H675   1.084       .  S
C665        C666   1.403       .  A
C665        H676   1.084       .  S
C666        C667   1.403       .  A
C667        C668   1.403       .  A
C667        H677   1.085       .  S
C668        C669   1.405   1_554  A
C669        H678   1.085       .  S
C670        C671   1.401       .  A
C670        H679   1.084       .  S
C671        C672   1.405   1_556  A
C672        H680   1.085       .  S
C681        C682   1.402       .  A
C681        C686   1.405       .  A
C681        H697   1.084       .  S
C682        C683   1.404       .  A
C682        H698   1.083       .  S
C683        C693   1.410       .  A
C683        C684   1.413       .  A
C684        C690   1.410   1_554  A
C684        C685   1.417       .  A
C685        C687   1.413   1_554  A
C685        C686   1.410       .  A
C686        C694   1.407       .  A
C687        C696   1.409       .  A
C687        C688   1.404       .  A
C688        C689   1.401       .  A
C688        H699   1.083       .  S
C689        C690   1.405       .  A
C689        H700   1.084       .  S
C690        C691   1.405       .  A
C691        C692   1.410       .  A
C691        H701   1.084       .  S
C692        C693   1.409   1_556  A
C693        H702   1.084       .  S
C694        C695   1.410       .  A
C694        H703   1.084       .  S
C695        C696   1.407   1_554  A
C696        H704   1.084       .  S
C705        C706   1.401       .  A
C705        C710   1.405       .  A
C705        H721   1.084       .  S
C706        C707   1.404       .  A
C706        H722   1.083       .  S
C707        C717   1.410       .  A
C707        C708   1.415       .  A
C708        C714   1.410       .  A
C708        C709   1.416       .  A
C709        C711   1.415       .  A
C709        C710   1.410       .  A
C710        C718   1.404       .  A
C711        C720   1.409       .  A
C711        C712   1.404       .  A
C712        C713   1.401       .  A
C712        H723   1.083       .  S
C713        C714   1.404       .  A
C713        H724   1.084       .  S
C714        C715   1.403       .  A
C715        C716   1.406       .  A
C715        H725   1.083       .  S
C716        C717   1.405       .  A
C717        H726   1.084       .  S
C718        C719   1.408       .  A
C718        H727   1.085       .  S
C719        C720   1.404       .  A
C720        H728   1.084       .  S
C729        C730   1.400       .  A
C729        C734   1.404       .  A
C729        H745   1.084       .  S
C730        C731   1.403       .  A
C730        H746   1.084       .  S
C731        C741   1.408       .  A
C731        C732   1.415       .  A
C732        C738   1.410       .  A
C732        C733   1.415       .  A
C733        C735   1.415       .  A
C733        C734   1.410       .  A
C734        C742   1.402       .  A
C735        C744   1.411       .  A
C735        C736   1.404       .  A
C736        C737   1.402       .  A
C736        H747   1.083       .  S
C737        C738   1.405       .  A
C737        H748   1.084       .  S
C738        C739   1.405       .  A
C739        C740   1.407       .  A
C739        H749   1.084       .  S
C740        C741   1.403       .  A
C741        H750   1.084       .  S
C742        C743   1.408       .  A
C742        H751   1.085       .  S
C743        C744   1.406       .  A
C744        H752   1.084       .  S
