geometry optimzed in LAMMPS
_audit_creation_date              2020-11-30 
_audit_creation_method            'lammps2cif' 
_symmetry_space_group_name_H-M    'P1' 
_symmetry_Int_Tables_number       1 
_symmetry_cell_setting            triclinic 
loop_ 
_symmetry_equiv_pos_as_xyz 
  x,y,z 
_cell_length_a                    40.72375630062186 
_cell_length_b                    36.07042872267139 
_cell_length_c                    43.86704761514381 
_cell_angle_alpha                 90.02330039162212 
_cell_angle_beta                  103.74423242212717 
_cell_angle_gamma                 90.0543212316627 
loop_ 
_atom_site_label 
_atom_site_type_symbol 
_atom_site_fract_x 
_atom_site_fract_y 
_atom_site_fract_z 
_atom_site_charge 
O1          O  0.25086381  0.64877010  0.41852767    -0.85520
O2          O  0.23941463  0.59720516  0.37098531    -0.82570
C3          C  0.21122427  0.58253598  0.37092531     0.97940
O4          O  0.18490300  0.60234899  0.36537879    -0.82600
O5          O  0.14441628  0.66768762  0.34921610    -0.85250
C6          C  0.14405120  0.68851219  0.37241419     1.02470
O7          O  0.17145245  0.69789500  0.39063532    -0.78010
O8          O  0.23788559  0.70804077  0.41737356    -0.78200
C9          C  0.24718129  0.67843492  0.43266706     1.02420
O10         O  0.28296902  0.69609550  0.38295468    -0.85520
O11         O  0.26314293  0.64846219  0.33191248    -0.82580
C12         C  0.24354516  0.63087196  0.30994771     0.97960
O13         O  0.21555850  0.61837037  0.31354424    -0.82610
O14         O  0.18018204  0.68149324  0.30252827    -0.85220
C15         C  0.17227210  0.71464791  0.30550505     1.02430
O16         O  0.17826590  0.72985150  0.33235892    -0.78040
O17         O  0.24692102  0.73665087  0.35793303    -0.78180
C18         C  0.27691497  0.72776440  0.37070056     1.02390
Cr19       Cr  0.25621115  0.64902378  0.37506086     1.93740
Cr20       Cr  0.18367339  0.64414590  0.33525790     1.93210
Cr21       Cr  0.20916364  0.71477811  0.37355157     1.39100
O22         O  0.21613480  0.66943588  0.36132493    -1.23270
O23         O  0.27401904  0.64903632  0.08207589    -0.85520
O24         O  0.28441431  0.59769324  0.12978678    -0.82570
C25         C  0.31321377  0.58400662  0.13066446     0.97940
O26         O  0.33898162  0.60467107  0.13634117    -0.82600
O27         O  0.37780931  0.67039870  0.15287185    -0.85250
C28         C  0.37892410  0.69034778  0.12935336     1.02470
O29         O  0.35190280  0.69996861  0.11061599    -0.78010
O30         O  0.28484150  0.70891633  0.08300969    -0.78200
C31         C  0.27694692  0.67886896  0.06792991     1.02420
O32         O  0.23973017  0.69631264  0.11653294    -0.85520
O33         O  0.25861760  0.64887772  0.16771499    -0.82580
C34         C  0.27802785  0.63170219  0.19004635     0.97960
O35         O  0.30641542  0.61983906  0.18705034    -0.82610
O36         O  0.34033895  0.68414819  0.19846099    -0.85220
C37         C  0.34864180  0.71715473  0.19524008     1.02430
O38         O  0.34378676  0.73172846  0.16823285    -0.78040
O39         O  0.27516594  0.73718909  0.14221128    -0.78180
C40         C  0.24532628  0.72788455  0.12928181     1.02390
Cr41       Cr  0.26693176  0.64943002  0.12498303     1.93740
Cr42       Cr  0.33860509  0.64635602  0.16618813     1.93210
Cr43       Cr  0.31333976  0.71611351  0.12698397     1.39100
O44         O  0.30650378  0.67073941  0.13935460    -1.23270
O45         O  0.48724784  0.91199855  0.37212690    -0.85520
O46         O  0.50063167  0.85942994  0.41863425    -0.82570
C47         C  0.49746564  0.82970650  0.43286278     0.97940
O48         O  0.48808691  0.80007765  0.41757543    -0.82600
O49         O  0.42108243  0.80894931  0.38971954    -0.85250
C50         C  0.39392948  0.81801626  0.37086215     1.02470
O51         O  0.39493923  0.83723241  0.34695846    -0.78010
O52         O  0.43272551  0.90273840  0.36465937    -0.78200
C53         C  0.45811170  0.92374732  0.37282604     1.02420
O54         O  0.51352190  0.86247076  0.33208881    -0.85520
O55         O  0.03372261  0.81400991  0.38221131    -0.82580
C56         C  0.02813192  0.78188911  0.37057173     0.97960
O57         O  0.49824188  0.77187785  0.35855831    -0.82610
O58         O  0.42977314  0.77742916  0.33201235    -0.85220
C59         C  0.42512515  0.79195549  0.30497515     1.02430
O60         O  0.43332893  0.82503339  0.30178134    -0.78040
O61         O  0.46540677  0.89089138  0.31378251    -0.78180
C62         C  0.49369582  0.87968669  0.31012123     1.02390
Cr63       Cr  0.50595374  0.86045223  0.37513441     1.93740
Cr64       Cr  0.45988277  0.79302916  0.37348027     1.93210
Cr65       Cr  0.43400544  0.86239115  0.33422244     1.39100
O66         O  0.46652693  0.83848714  0.36106405    -1.23270
O67         O  0.03512407  0.91259197  0.12842943    -0.85520
O68         O  0.02265133  0.85948285  0.08232782    -0.82570
C69         C  0.02510393  0.82926141  0.06854319     0.97940
O70         O  0.03299267  0.79958089  0.08414948    -0.82600
O71         O  0.10019513  0.80875534  0.11045355    -0.85250
C72         C  0.12776651  0.81780367  0.12859444     1.02470
O73         O  0.12768950  0.83811987  0.15218290    -0.78010
O74         O  0.08945672  0.90348161  0.13473558    -0.78200
C75         C  0.06400818  0.92438228  0.12696492     1.02420
O76         O  0.00942008  0.86333121  0.16865464    -0.85520
O77         O  0.48893666  0.81403367  0.11877118    -0.82580
C78         C  0.99489973  0.78265548  0.13182176     0.97960
O79         O  0.02477359  0.77363392  0.14464684    -0.82610
O80         O  0.09335285  0.77858117  0.16928088    -0.85220
C81         C  0.09912723  0.79380430  0.19613095     1.02430
O82         O  0.09112912  0.82698617  0.19894463    -0.78040
O83         O  0.05782432  0.89177573  0.18673361    -0.78180
C84         C  0.02951627  0.88050241  0.19054541     1.02390
Cr85       Cr  0.01674163  0.86089589  0.12562536     1.93740
Cr86       Cr  0.06230976  0.79346927  0.12805175     1.93210
Cr87       Cr  0.08912403  0.86358419  0.16578925     1.39100
O88         O  0.05619595  0.83919386  0.13984484    -1.23270
O89         O  0.23930610  0.40756834  0.37176520    -0.85520
O90         O  0.24999982  0.35603860  0.41909815    -0.82570
C91         C  0.24681645  0.32629292  0.43326542     0.97940
O92         O  0.23858728  0.29629174  0.41814471    -0.82600
O93         O  0.17155568  0.30555864  0.39160222    -0.85250
C94         C  0.14425616  0.31579556  0.37368748     1.02470
O95         O  0.14481562  0.33666832  0.35057186    -0.78010
O96         O  0.18494282  0.40180666  0.36673099    -0.78200
C97         C  0.21109396  0.42187872  0.37217416     1.02420
O98         O  0.26324974  0.35652085  0.33272877    -0.85520
O99         O  0.28298522  0.30866413  0.38378686    -0.82580
C100        C  0.27701714  0.27716993  0.37103156     0.97960
O101        O  0.24704839  0.26826955  0.35819882    -0.82610
O102        O  0.17826413  0.27450345  0.33312005    -0.85220
C103        C  0.17185191  0.29000282  0.30638685     1.02430
O104        O  0.17995738  0.32311524  0.30347496    -0.78040
O105        O  0.21548172  0.38626979  0.31453806    -0.78180
C106        C  0.24351607  0.37406263  0.31082030     1.02390
Cr107      Cr  0.25610055  0.35574217  0.37587635     1.93740
Cr108      Cr  0.20942210  0.28950815  0.37426734     1.93210
Cr109      Cr  0.18369795  0.36029956  0.33633792     1.39100
O110        O  0.21616637  0.33502195  0.36212359    -1.23270
O111        O  0.28441181  0.40972735  0.13036944    -0.85520
O112        O  0.27269812  0.35768762  0.08275248    -0.82570
C113        C  0.27608161  0.32781927  0.06872635     0.97940
O114        O  0.28495910  0.29823426  0.08418266    -0.82600
O115        O  0.35155880  0.30795512  0.11094531    -0.85250
C116        C  0.37895667  0.31722884  0.12925375     1.02470
O117        O  0.37857416  0.33780571  0.15259716    -0.78010
O118        O  0.33894276  0.40333335  0.13633549    -0.78200
C119        C  0.31307115  0.42376847  0.13114220     1.02420
O120        O  0.25985207  0.35875368  0.16930870    -0.85520
O121        O  0.24001483  0.31085036  0.11849763    -0.82580
C122        C  0.24587025  0.27927981  0.13111052     0.97960
O123        O  0.27582966  0.27016084  0.14373635    -0.82610
O124        O  0.34452535  0.27627410  0.16917187    -0.85220
C125        C  0.35044983  0.29135240  0.19606543     1.02430
O126        O  0.34238973  0.32444374  0.19910624    -0.78040
O127        O  0.30769952  0.38812772  0.18797376    -0.78180
C128        C  0.27956346  0.37596148  0.19146515     1.02390
Cr129      Cr  0.26709170  0.35785707  0.12621745     1.93740
Cr130      Cr  0.31367094  0.29151216  0.12801069     1.93210
Cr131      Cr  0.33950096  0.36180378  0.16644556     1.39100
O132        O  0.30695090  0.33695759  0.14018656    -1.23270
O133        O  0.49982391  0.14613124  0.41915285    -0.85520
O134        O  0.48784151  0.09321262  0.37274442    -0.82570
C135        C  0.45889695  0.08126230  0.37385263     0.97940
O136        O  0.43343351  0.10212067  0.36597820    -0.82600
O137        O  0.39512756  0.16734186  0.34843228    -0.85250
C138        C  0.39462549  0.18737642  0.37207681     1.02470
O139        O  0.42201264  0.19662330  0.39045542    -0.78010
O140        O  0.48923074  0.20602697  0.41741072    -0.78200
C141        C  0.49722537  0.17632723  0.43293153     1.02420
O142        O  0.03376924  0.19191113  0.38307421    -0.85520
O143        O  0.51388782  0.14281980  0.33289041    -0.82580
C144        C  0.49398814  0.12566034  0.31083109     0.97960
O145        O  0.46566091  0.11424375  0.31446729    -0.82610
O146        O  0.43231128  0.17903511  0.30224579    -0.85220
C147        C  0.42408832  0.21212369  0.30513233     1.02430
O148        O  0.42955921  0.22720549  0.33202740    -0.78040
O149        O  0.49806284  0.23258244  0.35744868    -0.78180
C150        C  0.02790008  0.22353317  0.37043524     1.02390
Cr151      Cr  0.50611688  0.14498050  0.37587268     1.93740
Cr152      Cr  0.43402744  0.14221819  0.33516887     1.93210
Cr153      Cr  0.46024615  0.21224408  0.37339650     1.39100
O154        O  0.46667103  0.16661761  0.36146414    -1.23270
O155        O  0.02138076  0.14649186  0.08228488    -0.85520
O156        O  0.03533108  0.09336632  0.12846641    -0.82570
C157        C  0.06438927  0.08176511  0.12731897     0.97940
O158        O  0.08971523  0.10289379  0.13511620    -0.82600
O159        O  0.12787795  0.16835619  0.15333216    -0.85250
C160        C  0.12832081  0.18858017  0.12982406     1.02470
O161        O  0.10092228  0.19721980  0.11128927    -0.78010
O162        O  0.03422926  0.20588674  0.08381819    -0.78200
C163        C  0.02463952  0.17640887  0.06833995     1.02420
O164        O  0.48868006  0.19135137  0.11924881    -0.85520
O165        O  0.00954021  0.14251289  0.16910324    -0.82580
C166        C  0.02958822  0.12529364  0.19091392     0.97960
O167        O  0.05773108  0.11392895  0.18688037    -0.82610
O168        O  0.09030601  0.17907842  0.19917742    -0.85220
C169        C  0.09826219  0.21229648  0.19650601     1.02430
O170        O  0.09259979  0.22773649  0.16973506    -0.78040
O171        O  0.02421770  0.23314583  0.14335606    -0.78180
C172        C  0.99435019  0.22336597  0.13108854     1.02390
Cr173      Cr  0.01657969  0.14492751  0.12592693     1.93740
Cr174      Cr  0.08894951  0.14261416  0.16616305     1.93210
Cr175      Cr  0.06244152  0.21257342  0.12801849     1.39100
O176        O  0.05607529  0.16687114  0.13994155    -1.23270
C177        C  0.48856616  0.15074750  0.48300225    -0.21480
C178        C  0.50402330  0.17702257  0.46743306    -0.09520
C179        C  0.02580737  0.20356541  0.48504803     0.29330
C180        C  0.03212791  0.20354849  0.01786488    -0.21240
C181        C  0.01678823  0.17710428  0.03357772    -0.09540
C182        C  0.49457278  0.15090234  0.01573269     0.29340
F183        F  0.47808087  0.12589885  0.02982206    -0.20060
H184        H  0.47139853  0.13037404  0.46970832     0.17710
H185        H  0.04955216  0.22377161  0.03102967     0.17710
F186        F  0.04194823  0.22853213  0.47058310    -0.20050
C187        C  0.03723530  0.11995532  0.27877405    -0.21480
C188        C  0.50318252  0.11995340  0.28033893    -0.09520
C189        C  0.47795431  0.11797564  0.25211579     0.29330
C190        C  0.48669476  0.11841821  0.22309952    -0.21480
C191        C  0.02071011  0.11962889  0.22152303    -0.09540
C192        C  0.04599226  0.11921017  0.24974718     0.29340
F193        F  0.07919489  0.12037841  0.24937550    -0.20060
H194        H  0.05714652  0.12135800  0.30007364     0.17710
H195        H  0.46675982  0.11863922  0.20177870     0.17710
F196        F  0.44471630  0.11781199  0.25240856    -0.20050
C197        C  0.19124651  0.19890278  0.14738071    -0.21480
C198        C  0.16003550  0.20707091  0.12659700    -0.09520
C199        C  0.15840956  0.23750412  0.10607139     0.29330
C200        C  0.18655285  0.26008748  0.10763658    -0.21480
C201        C  0.21730092  0.25301877  0.12928167    -0.09540
C202        C  0.21973799  0.22140711  0.14856488     0.29340
F203        F  0.24910976  0.21310222  0.16947483    -0.20060
H204        H  0.19330624  0.17589618  0.16357002     0.17710
H205        H  0.18397043  0.28373870  0.09204119     0.17710
F206        F  0.12909441  0.24706923  0.08556609    -0.20050
C207        C  0.46972545  0.28230833  0.14719940    -0.21480
C208        C  0.46585117  0.24972105  0.12898093    -0.09520
C209        C  0.43439649  0.24276047  0.10816438     0.29330
C210        C  0.40735985  0.26689469  0.10660974    -0.21480
C211        C  0.41041930  0.29826549  0.12616377    -0.09540
C212        C  0.44224156  0.30624696  0.14606074     0.29340
F213        F  0.44657879  0.33640105  0.16511210    -0.20060
H214        H  0.49378731  0.28869676  0.16308091     0.17710
H215        H  0.38330340  0.25966745  0.09107679     0.17710
F216        F  0.42935001  0.21224377  0.08948841    -0.20050
C217        C  0.37453693  0.23291168  0.22232432    -0.21480
C218        C  0.36868183  0.27100520  0.22416059    -0.09520
C219        C  0.38182609  0.28973808  0.25273728     0.29330
C220        C  0.40019850  0.27052671  0.27877660    -0.21480
C221        C  0.40603307  0.23243313  0.27695277    -0.09540
C222        C  0.39291222  0.21369519  0.24837901     0.29340
F223        F  0.39707243  0.17663166  0.24559691    -0.20060
H224        H  0.36478948  0.21785583  0.20069440     0.17710
H225        H  0.40992209  0.28558759  0.30040909     0.17710
F226        F  0.37763232  0.32679111  0.25556885    -0.20050
C227        C  0.08222032  0.30334650  0.35340499    -0.21480
C228        C  0.11218793  0.29810471  0.37678624    -0.09520
C229        C  0.11271677  0.27023683  0.39948844     0.29330
C230        C  0.08508588  0.24660866  0.39724801    -0.21480
C231        C  0.05597426  0.25041427  0.37283610    -0.09540
C232        C  0.05425981  0.27994846  0.35152962     0.29340
F233        F  0.02634466  0.28502886  0.32788355    -0.20060
H234        H  0.08098165  0.32432417  0.33552610     0.17710
H235        H  0.08672115  0.22481919  0.41452390     0.17710
F236        F  0.14059753  0.26425518  0.42300020    -0.20050
C237        C  0.33564342  0.25678669  0.39565222    -0.21480
C238        C  0.30540379  0.25074108  0.37298523    -0.09520
C239        C  0.30332785  0.22005610  0.35273320     0.29330
C240        C  0.33182790  0.19766715  0.35388651    -0.21480
C241        C  0.36268026  0.20504425  0.37555810    -0.09540
C242        C  0.36379498  0.23427619  0.39717945     0.29340
F243        F  0.39266301  0.24279094  0.41877713    -0.20060
H244        H  0.33783180  0.27963642  0.41206141     0.17710
H245        H  0.33013019  0.17554078  0.33687961     0.17710
F246        F  0.27440119  0.21273571  0.33083814    -0.20050
C247        C  0.15053781  0.23146448  0.27855629    -0.21480
C248        C  0.15317427  0.27013249  0.27823211    -0.09520
C249        C  0.13689016  0.28979671  0.25100069     0.29330
C250        C  0.11878566  0.27089098  0.22461573    -0.21480
C251        C  0.11627462  0.23221279  0.22489207    -0.09540
C252        C  0.13242252  0.21256014  0.25217534     0.29340
F253        F  0.13168953  0.17496848  0.25320709    -0.20060
H254        H  0.16283032  0.21576319  0.29913315     0.17710
H255        H  0.10656401  0.28657917  0.20400710     0.17710
F256        F  0.13769166  0.32738786  0.24994954    -0.20050
C257        C  0.25072070  0.35647765  0.01656967    -0.21480
C258        C  0.26856443  0.32704713  0.03398037    -0.09520
C259        C  0.27901668  0.29717822  0.01779627     0.29330
C260        C  0.27136269  0.29678782  0.48498622    -0.21480
C261        C  0.25380587  0.32636259  0.46777415    -0.09540
C262        C  0.24345050  0.35623182  0.48379963     0.29340
F263        F  0.22551044  0.38472345  0.46773893    -0.20060
H264        H  0.24214065  0.37966654  0.02831138     0.17710
H265        H  0.27983810  0.27373431  0.47299887     0.17710
F266        F  0.29732361  0.26875003  0.03356514    -0.20050
C267        C  0.28662788  0.38172693  0.27907871    -0.21480
C268        C  0.25260159  0.37963676  0.28042257    -0.09520
C269        C  0.22737571  0.37988377  0.25218312     0.29330
C270        C  0.23623485  0.37996914  0.22327003    -0.21480
C271        C  0.27030130  0.38090248  0.22188930    -0.09540
C272        C  0.29545800  0.38297566  0.25014731     0.29340
F273        F  0.32870475  0.38410701  0.24993786    -0.20060
H274        H  0.30645757  0.38174247  0.30047542     0.17710
H275        H  0.21641304  0.37847019  0.20191082     0.17710
F276        F  0.19416695  0.37779145  0.25241837    -0.20050
C277        C  0.03973228  0.02263636  0.10329565    -0.21480
C278        C  0.06819629  0.04217465  0.11997767    -0.09520
C279        C  0.09779818  0.02228213  0.13359965     0.29330
C280        C  0.09745345  0.98338593  0.13333729    -0.21480
C281        C  0.06766807  0.96397136  0.11955732    -0.09540
C282        C  0.03940182  0.98398853  0.10298815     0.29340
F283        F  0.01061378  0.96624382  0.08813539    -0.20060
H284        H  0.01686030  0.03730446  0.09204377     0.17710
H285        H  0.11958985  0.96859651  0.14612911     0.17710
F286        F  0.12592753  0.04012099  0.14978213    -0.20050
C287        C  0.48302209  0.98276132  0.39684793    -0.21480
C288        C  0.45443337  0.96335769  0.38022904    -0.09520
C289        C  0.42484678  0.98339246  0.36684452     0.29330
C290        C  0.42531789  0.02229433  0.36726999    -0.21480
C291        C  0.45521173  0.04157871  0.38097771    -0.09540
C292        C  0.48349367  0.02139605  0.39729297     0.29340
F293        F  0.51241931  0.03896068  0.41204941    -0.20060
H294        H  0.50590101  0.96799407  0.40796350     0.17710
H295        H  0.40314357  0.03721064  0.35468866     0.17710
F296        F  0.39656624  0.96569596  0.35081190    -0.20050
C297        C  0.49630994  0.79844665  0.48366631    -0.21480
C298        C  0.50523306  0.82930101  0.46769584    -0.09520
C299        C  0.02113929  0.85975388  0.48540334     0.29330
C300        C  0.02726933  0.85944456  0.01811403    -0.21480
C301        C  0.01827566  0.82869576  0.03395554    -0.09540
C302        C  0.50283249  0.79803656  0.01647882     0.29340
F303        F  0.49299436  0.76824417  0.03101514    -0.20060
H304        H  0.48387721  0.77472809  0.47074695     0.17710
H305        H  0.03951923  0.88318653  0.03116652     0.17710
F306        F  0.03117924  0.88976697  0.47128158    -0.20050
C307        C  0.48645121  0.88710387  0.22252640    -0.21480
C308        C  0.02050068  0.88626377  0.22104516    -0.09520
C309        C  0.04573585  0.88713373  0.24928625     0.29330
C310        C  0.03693513  0.88618054  0.27826002    -0.21480
C311        C  0.50287534  0.88566682  0.27972366    -0.09540
C312        C  0.47765046  0.88747028  0.25149931     0.29340
F313        F  0.44438624  0.88731665  0.25175388    -0.20060
H314        H  0.46655686  0.88662437  0.20118167     0.17710
H315        H  0.05681445  0.88504540  0.29959205     0.17710
F316        F  0.07896267  0.88667268  0.24898917    -0.20050
C317        C  0.29292503  0.52338523  0.14345264    -0.21480
C318        C  0.31572918  0.54310574  0.13019030    -0.09520
C319        C  0.33954629  0.52327679  0.11799072     0.29330
C320        C  0.33935320  0.48409710  0.11825717    -0.21480
C321        C  0.31544259  0.46473023  0.13071419    -0.09540
C322        C  0.29282425  0.48504787  0.14395981     0.29340
F323        F  0.27091857  0.46787721  0.15837469    -0.20060
H324        H  0.27510239  0.53780822  0.15407013     0.17710
H325        H  0.35731280  0.46900532  0.10833086     0.17710
F326        F  0.36209013  0.54155413  0.10513817    -0.20050
C327        C  0.18573233  0.74630893  0.10622097    -0.21480
C328        C  0.21667303  0.75394909  0.12739685    -0.09520
C329        C  0.21926447  0.78597660  0.14625437     0.29330
C330        C  0.19076332  0.80831511  0.14517911    -0.21480
C331        C  0.15936874  0.79955082  0.12495324    -0.09540
C332        C  0.15754676  0.76871700  0.10478339     0.29340
F333        F  0.12802108  0.75856823  0.08484386    -0.20060
H334        H  0.18302012  0.72231175  0.09095338     0.17710
H335        H  0.19297392  0.83166445  0.16107741     0.17710
F336        F  0.24882990  0.79489089  0.16666348    -0.20050
C337        C  0.43991520  0.70559919  0.15195599    -0.21480
C338        C  0.41120575  0.70783815  0.12673229    -0.09520
C339        C  0.41179378  0.73282214  0.10212000     0.29330
C340        C  0.43921472  0.75670143  0.10402513    -0.21480
C341        C  0.46697746  0.75585319  0.13002183    -0.09540
C342        C  0.46764951  0.72918681  0.15355488     0.29340
F343        F  0.49417254  0.72736983  0.17897693    -0.20060
H344        H  0.44021068  0.68695640  0.17141366     0.17710
H345        H  0.43855000  0.77632113  0.08514013     0.17710
F346        F  0.38520397  0.73558729  0.07682255    -0.20050
C347        C  0.38958992  0.76559444  0.22022550    -0.21480
C348        C  0.36680293  0.73747590  0.22325291    -0.09520
C349        C  0.36428467  0.72648291  0.25342846     0.29330
C350        C  0.38434844  0.74337098  0.27998604    -0.21480
C351        C  0.40710482  0.77152953  0.27695902    -0.09540
C352        C  0.40968589  0.78244375  0.24679011     0.29340
F353        F  0.43195130  0.80901972  0.24291737    -0.20060
H354        H  0.39253280  0.77387934  0.19728481     0.17710
H355        H  0.38141145  0.73506702  0.30292416     0.17710
F356        F  0.34214883  0.69975004  0.25731882    -0.20050
C357        C  0.23769034  0.48265736  0.36970207    -0.21480
C358        C  0.20983316  0.46287957  0.37482459    -0.09520
C359        C  0.18182524  0.48292710  0.37977128     0.29330
C360        C  0.18207277  0.52210432  0.37923395    -0.21480
C361        C  0.21017574  0.54149826  0.37369296    -0.09540
C362        C  0.23789086  0.52092759  0.36880053     0.29340
F363        F  0.26501533  0.53747123  0.36149063    -0.20060
H364        H  0.25945260  0.46847251  0.36507645     0.17710
H365        H  0.16031119  0.53718256  0.38282831     0.17710
F366        F  0.15443559  0.46487712  0.38498686    -0.20050
C367        C  0.11603260  0.74029791  0.39352640    -0.21480
C368        C  0.11266063  0.70769960  0.37542726    -0.09520
C369        C  0.08047010  0.69843580  0.35686992     0.29330
C370        C  0.05279866  0.72215593  0.35574237    -0.21480
C371        C  0.05686093  0.75579699  0.37258870    -0.09540
C372        C  0.08884887  0.76419689  0.39192797     0.29340
F373        F  0.09432054  0.79593906  0.40904862    -0.20060
H374        H  0.14040593  0.74862326  0.40789268     0.17710
H375        H  0.02838729  0.71468054  0.34097733     0.17710
F376        F  0.07588791  0.66708930  0.33924725    -0.20050
C377        C  0.36314746  0.77277798  0.39673186    -0.21480
C378        C  0.36174108  0.80087831  0.37426373    -0.09520
C379        C  0.33079182  0.80713614  0.35228780     0.29330
C380        C  0.30277243  0.78418384  0.35179523    -0.21480
C381        C  0.30522599  0.75436832  0.37284592    -0.09540
C382        C  0.33550682  0.74965506  0.39595992     0.29340
F383        F  0.33881674  0.72214902  0.41760625    -0.20060
H384        H  0.38639294  0.76718705  0.41407297     0.17710
H385        H  0.27960195  0.78878218  0.33408634     0.17710
F386        F  0.32794768  0.83427578  0.33040321    -0.20050
C387        C  0.12308452  0.73541682  0.22256940    -0.21480
C388        C  0.11718971  0.77351515  0.22434420    -0.09520
C389        C  0.13020415  0.79227228  0.25292993     0.29330
C390        C  0.14836883  0.77306382  0.27908080    -0.21480
C391        C  0.15421716  0.73496452  0.27731797    -0.09540
C392        C  0.14135757  0.71622333  0.24868198     0.29340
F393        F  0.14582459  0.67919963  0.24583705    -0.20060
H394        H  0.11352545  0.72035238  0.20091740     0.17710
H395        H  0.15797895  0.78813766  0.30071920     0.17710
F396        F  0.12615327  0.82935556  0.25564557    -0.20050
C397        C  0.25094498  0.70790765  0.01648908    -0.21480
C398        C  0.26984002  0.67900267  0.03348301    -0.09520
C399        C  0.28140867  0.65009746  0.01731816     0.29330
C400        C  0.27401399  0.65014192  0.48455549    -0.21480
C401        C  0.25484428  0.67890839  0.46736340    -0.09540
C402        C  0.24317349  0.70778892  0.48370158     0.29340
F403        F  0.22353357  0.73541141  0.46809750    -0.20060
H404        H  0.24153467  0.73018081  0.02863920     0.17710
H405        H  0.28353477  0.62773957  0.47264498     0.17710
F406        F  0.30063232  0.62236107  0.03323565    -0.20050
C407        C  0.29423368  0.62419414  0.24811837    -0.21480
C408        C  0.26860017  0.62653351  0.22031847    -0.09520
C409        C  0.23466033  0.62691807  0.22232571     0.29330
C410        C  0.22674153  0.62616007  0.25165962    -0.21480
C411        C  0.25246666  0.62600447  0.27946131    -0.09540
C412        C  0.28634319  0.62445156  0.27743868     0.29340
F413        F  0.31184527  0.62377184  0.30376148    -0.20060
H414        H  0.32057001  0.62391277  0.24723233     0.17710
H415        H  0.20046422  0.62747647  0.25264823     0.17710
F416        F  0.20917000  0.62865462  0.19604007    -0.20050
O417        O  0.25086381  0.64877010  0.91852767    -0.85520
O418        O  0.23941463  0.59720516  0.87098531    -0.82570
C419        C  0.21122427  0.58253598  0.87092531     0.97940
O420        O  0.18490300  0.60234898  0.86537879    -0.82600
O421        O  0.14441627  0.66768762  0.84921609    -0.85250
C422        C  0.14405120  0.68851219  0.87241419     1.02470
O423        O  0.17145245  0.69789499  0.89063532    -0.78010
O424        O  0.23788559  0.70804077  0.91737356    -0.78200
C425        C  0.24718129  0.67843492  0.93266705     1.02420
O426        O  0.28296902  0.69609550  0.88295468    -0.85520
O427        O  0.26314293  0.64846219  0.83191248    -0.82580
C428        C  0.24354516  0.63087195  0.80994770     0.97960
O429        O  0.21555850  0.61837037  0.81354424    -0.82610
O430        O  0.18018205  0.68149324  0.80252827    -0.85220
C431        C  0.17227210  0.71464790  0.80550504     1.02430
O432        O  0.17826590  0.72985150  0.83235891    -0.78040
O433        O  0.24692102  0.73665086  0.85793302    -0.78180
C434        C  0.27691497  0.72776440  0.87070056     1.02390
Cr435      Cr  0.25621115  0.64902378  0.87506086     1.93740
Cr436      Cr  0.18367339  0.64414590  0.83525790     1.93210
Cr437      Cr  0.20916364  0.71477811  0.87355156     1.39100
O438        O  0.21613480  0.66943588  0.86132492    -1.23270
O439        O  0.27401904  0.64903632  0.58207588    -0.85520
O440        O  0.28441431  0.59769324  0.62978677    -0.82570
C441        C  0.31321377  0.58400661  0.63066446     0.97940
O442        O  0.33898162  0.60467107  0.63634117    -0.82600
O443        O  0.37780931  0.67039870  0.65287185    -0.85250
C444        C  0.37892410  0.69034778  0.62935336     1.02470
O445        O  0.35190280  0.69996861  0.61061599    -0.78010
O446        O  0.28484150  0.70891632  0.58300969    -0.78200
C447        C  0.27694692  0.67886895  0.56792991     1.02420
O448        O  0.23973016  0.69631263  0.61653294    -0.85520
O449        O  0.25861760  0.64887771  0.66771498    -0.82580
C450        C  0.27802785  0.63170218  0.69004635     0.97960
O451        O  0.30641542  0.61983905  0.68705034    -0.82610
O452        O  0.34033895  0.68414818  0.69846099    -0.85220
C453        C  0.34864179  0.71715472  0.69524008     1.02430
O454        O  0.34378676  0.73172845  0.66823285    -0.78040
O455        O  0.27516594  0.73718908  0.64221128    -0.78180
C456        C  0.24532628  0.72788454  0.62928181     1.02390
Cr457      Cr  0.26693176  0.64943001  0.62498303     1.93740
Cr458      Cr  0.33860509  0.64635601  0.66618813     1.93210
Cr459      Cr  0.31333975  0.71611350  0.62698397     1.39100
O460        O  0.30650377  0.67073940  0.63935460    -1.23270
O461        O  0.48724783  0.91199855  0.87212690    -0.85520
O462        O  0.50063166  0.85942994  0.91863425    -0.82570
C463        C  0.49746564  0.82970650  0.93286277     0.97940
O464        O  0.48808690  0.80007765  0.91757543    -0.82600
O465        O  0.42108242  0.80894931  0.88971954    -0.85250
C466        C  0.39392947  0.81801626  0.87086215     1.02470
O467        O  0.39493923  0.83723240  0.84695846    -0.78010
O468        O  0.43272550  0.90273840  0.86465936    -0.78200
C469        C  0.45811170  0.92374732  0.87282604     1.02420
O470        O  0.51352189  0.86247076  0.83208881    -0.85520
O471        O  0.03372260  0.81400991  0.88221131    -0.82580
C472        C  0.02813192  0.78188911  0.87057172     0.97960
O473        O  0.49824188  0.77187785  0.85855831    -0.82610
O474        O  0.42977313  0.77742915  0.83201235    -0.85220
C475        C  0.42512515  0.79195549  0.80497514     1.02430
O476        O  0.43332893  0.82503338  0.80178134    -0.78040
O477        O  0.46540676  0.89089137  0.81378251    -0.78180
C478        C  0.49369581  0.87968669  0.81012123     1.02390
Cr479      Cr  0.50595374  0.86045223  0.87513440     1.93740
Cr480      Cr  0.45988276  0.79302916  0.87348027     1.93210
Cr481      Cr  0.43400544  0.86239115  0.83422244     1.39100
O482        O  0.46652693  0.83848714  0.86106404    -1.23270
O483        O  0.03512407  0.91259197  0.62842943    -0.85520
O484        O  0.02265133  0.85948285  0.58232781    -0.82570
C485        C  0.02510393  0.82926140  0.56854318     0.97940
O486        O  0.03299266  0.79958089  0.58414948    -0.82600
O487        O  0.10019513  0.80875534  0.61045355    -0.85250
C488        C  0.12776650  0.81780366  0.62859444     1.02470
O489        O  0.12768950  0.83811986  0.65218290    -0.78010
O490        O  0.08945672  0.90348160  0.63473558    -0.78200
C491        C  0.06400818  0.92438227  0.62696492     1.02420
O492        O  0.00942008  0.86333120  0.66865464    -0.85520
O493        O  0.48893665  0.81403367  0.61877118    -0.82580
C494        C  0.99489973  0.78265547  0.63182176     0.97960
O495        O  0.02477359  0.77363392  0.64464683    -0.82610
O496        O  0.09335284  0.77858116  0.66928087    -0.85220
C497        C  0.09912723  0.79380430  0.69613095     1.02430
O498        O  0.09112911  0.82698616  0.69894463    -0.78040
O499        O  0.05782431  0.89177572  0.68673361    -0.78180
C500        C  0.02951626  0.88050240  0.69054540     1.02390
Cr501      Cr  0.01674162  0.86089589  0.62562536     1.93740
Cr502      Cr  0.06230976  0.79346927  0.62805174     1.93210
Cr503      Cr  0.08912403  0.86358418  0.66578925     1.39100
O504        O  0.05619595  0.83919385  0.63984484    -1.23270
O505        O  0.23930610  0.40756834  0.87176520    -0.85520
O506        O  0.24999982  0.35603860  0.91909815    -0.82570
C507        C  0.24681645  0.32629292  0.93326542     0.97940
O508        O  0.23858727  0.29629174  0.91814471    -0.82600
O509        O  0.17155568  0.30555864  0.89160222    -0.85250
C510        C  0.14425616  0.31579556  0.87368748     1.02470
O511        O  0.14481561  0.33666832  0.85057186    -0.78010
O512        O  0.18494282  0.40180666  0.86673099    -0.78200
C513        C  0.21109396  0.42187873  0.87217416     1.02420
O514        O  0.26324973  0.35652085  0.83272877    -0.85520
O515        O  0.28298521  0.30866413  0.88378686    -0.82580
C516        C  0.27701713  0.27716993  0.87103155     0.97960
O517        O  0.24704838  0.26826955  0.85819882    -0.82610
O518        O  0.17826412  0.27450345  0.83312005    -0.85220
C519        C  0.17185190  0.29000283  0.80638685     1.02430
O520        O  0.17995737  0.32311524  0.80347496    -0.78040
O521        O  0.21548172  0.38626979  0.81453806    -0.78180
C522        C  0.24351607  0.37406263  0.81082030     1.02390
Cr523      Cr  0.25610055  0.35574217  0.87587635     1.93740
Cr524      Cr  0.20942209  0.28950816  0.87426734     1.93210
Cr525      Cr  0.18369794  0.36029957  0.83633792     1.39100
O526        O  0.21616637  0.33502195  0.86212359    -1.23270
O527        O  0.28441181  0.40972735  0.63036944    -0.85520
O528        O  0.27269812  0.35768762  0.58275248    -0.82570
C529        C  0.27608161  0.32781927  0.56872635     0.97940
O530        O  0.28495910  0.29823426  0.58418266    -0.82600
O531        O  0.35155879  0.30795512  0.61094531    -0.85250
C532        C  0.37895666  0.31722883  0.62925375     1.02470
O533        O  0.37857416  0.33780570  0.65259716    -0.78010
O534        O  0.33894276  0.40333334  0.63633549    -0.78200
C535        C  0.31307115  0.42376847  0.63114220     1.02420
O536        O  0.25985207  0.35875369  0.66930870    -0.85520
O537        O  0.24001483  0.31085036  0.61849763    -0.82580
C538        C  0.24587024  0.27927981  0.63111052     0.97960
O539        O  0.27582965  0.27016084  0.64373634    -0.82610
O540        O  0.34452534  0.27627409  0.66917187    -0.85220
C541        C  0.35044982  0.29135240  0.69606543     1.02430
O542        O  0.34238972  0.32444374  0.69910624    -0.78040
O543        O  0.30769952  0.38812771  0.68797376    -0.78180
C544        C  0.27956346  0.37596148  0.69146515     1.02390
Cr545      Cr  0.26709169  0.35785707  0.62621745     1.93740
Cr546      Cr  0.31367093  0.29151215  0.62801069     1.93210
Cr547      Cr  0.33950096  0.36180378  0.66644556     1.39100
O548        O  0.30695090  0.33695758  0.64018656    -1.23270
O549        O  0.49982391  0.14613124  0.91915286    -0.85520
O550        O  0.48784151  0.09321262  0.87274443    -0.82570
C551        C  0.45889694  0.08126230  0.87385264     0.97940
O552        O  0.43343351  0.10212067  0.86597820    -0.82600
O553        O  0.39512755  0.16734185  0.84843228    -0.85250
C554        C  0.39462548  0.18737641  0.87207681     1.02470
O555        O  0.42201263  0.19662330  0.89045542    -0.78010
O556        O  0.48923073  0.20602697  0.91741072    -0.78200
C557        C  0.49722537  0.17632724  0.93293154     1.02420
O558        O  0.03376924  0.19191114  0.88307422    -0.85520
O559        O  0.51388782  0.14281980  0.83289042    -0.82580
C560        C  0.49398813  0.12566034  0.81083109     0.97960
O561        O  0.46566090  0.11424375  0.81446730    -0.82610
O562        O  0.43231127  0.17903511  0.80224580    -0.85220
C563        C  0.42408831  0.21212369  0.80513233     1.02430
O564        O  0.42955920  0.22720550  0.83202740    -0.78040
O565        O  0.49806283  0.23258245  0.85744868    -0.78180
C566        C  0.02790007  0.22353317  0.87043525     1.02390
Cr567      Cr  0.50611688  0.14498051  0.87587268     1.93740
Cr568      Cr  0.43402744  0.14221819  0.83516887     1.93210
Cr569      Cr  0.46024614  0.21224409  0.87339650     1.39100
O570        O  0.46667102  0.16661761  0.86146415    -1.23270
O571        O  0.02138077  0.14649184  0.58228490    -0.85520
O572        O  0.03533109  0.09336631  0.62846643    -0.82570
C573        C  0.06438928  0.08176510  0.62731898     0.97940
O574        O  0.08971524  0.10289378  0.63511621    -0.82600
O575        O  0.12787794  0.16835619  0.65333216    -0.85250
C576        C  0.12832080  0.18858017  0.62982406     1.02470
O577        O  0.10092226  0.19721980  0.61128926    -0.78010
O578        O  0.03422924  0.20588673  0.58381819    -0.78200
C579        C  0.02463952  0.17640885  0.56833996     1.02420
O580        O  0.48868006  0.19135136  0.61924881    -0.85520
O581        O  0.00954022  0.14251288  0.66910325    -0.82580
C582        C  0.02958822  0.12529364  0.69091393     0.97960
O583        O  0.05773109  0.11392895  0.68688039    -0.82610
O584        O  0.09030601  0.17907842  0.69917742    -0.85220
C585        C  0.09826219  0.21229648  0.69650601     1.02430
O586        O  0.09259978  0.22773649  0.66973506    -0.78040
O587        O  0.02421769  0.23314581  0.64335607    -0.78180
C588        C  0.99435018  0.22336595  0.63108855     1.02390
Cr589      Cr  0.01657970  0.14492750  0.62592694     1.93740
Cr590      Cr  0.08894951  0.14261416  0.66616305     1.93210
Cr591      Cr  0.06244151  0.21257341  0.62801849     1.39100
O592        O  0.05607528  0.16687114  0.63994156    -1.23270
C593        C  0.48856601  0.15074764  0.98300224    -0.21480
C594        C  0.50402330  0.17702258  0.96743306    -0.09520
C595        C  0.02580760  0.20356523  0.98504803     0.29330
C596        C  0.03212769  0.20354866  0.51786487    -0.21240
C597        C  0.01678823  0.17710425  0.53357772    -0.09540
C598        C  0.49457292  0.15090219  0.51573269     0.29340
F599        F  0.47808115  0.12589856  0.52982206    -0.20060
H600        H  0.47139827  0.13037428  0.96970831     0.17710
H601        H  0.04955176  0.22377194  0.53102965     0.17710
F602        F  0.04194867  0.22853173  0.97058311    -0.20050
C603        C  0.03723531  0.11995533  0.77877407    -0.21480
C604        C  0.50318252  0.11995341  0.78033894    -0.09520
C605        C  0.47795431  0.11797564  0.75211580     0.29330
C606        C  0.48669476  0.11841820  0.72309953    -0.21480
C607        C  0.02071012  0.11962889  0.72152304    -0.09540
C608        C  0.04599226  0.11921017  0.74974719     0.29340
F609        F  0.07919489  0.12037842  0.74937551    -0.20060
H610        H  0.05714652  0.12135802  0.80007365     0.17710
H611        H  0.46675982  0.11863921  0.70177871     0.17710
F612        F  0.44471630  0.11781198  0.75240857    -0.20050
C613        C  0.19124651  0.19890278  0.64738070    -0.21480
C614        C  0.16003549  0.20707092  0.62659699    -0.09520
C615        C  0.15840954  0.23750415  0.60607140     0.29330
C616        C  0.18655284  0.26008750  0.60763659    -0.21480
C617        C  0.21730091  0.25301877  0.62928167    -0.09540
C618        C  0.21973798  0.22140710  0.64856486     0.29340
F619        F  0.24910976  0.21310219  0.66947480    -0.20060
H620        H  0.19330624  0.17589616  0.66356999     0.17710
H621        H  0.18397041  0.28373873  0.59204122     0.17710
F622        F  0.12909439  0.24706927  0.58556611    -0.20050
C623        C  0.46972545  0.28230831  0.64719941    -0.21480
C624        C  0.46585116  0.24972104  0.62898094    -0.09520
C625        C  0.43439649  0.24276047  0.60816437     0.29330
C626        C  0.40735985  0.26689469  0.60660974    -0.21480
C627        C  0.41041930  0.29826548  0.62616377    -0.09540
C628        C  0.44224156  0.30624695  0.64606075     0.29340
F629        F  0.44657878  0.33640104  0.66511211    -0.20060
H630        H  0.49378730  0.28869674  0.66308093     0.17710
H631        H  0.38330340  0.25966746  0.59107678     0.17710
F632        F  0.42935001  0.21224377  0.58948840    -0.20050
C633        C  0.37453693  0.23291168  0.72232432    -0.21480
C634        C  0.36868182  0.27100519  0.72416059    -0.09520
C635        C  0.38182608  0.28973807  0.75273728     0.29330
C636        C  0.40019848  0.27052671  0.77877660    -0.21480
C637        C  0.40603306  0.23243313  0.77695277    -0.09540
C638        C  0.39291222  0.21369519  0.74837901     0.29340
F639        F  0.39707243  0.17663166  0.74559691    -0.20060
H640        H  0.36478948  0.21785583  0.70069440     0.17710
H641        H  0.40992208  0.28558759  0.80040909     0.17710
F642        F  0.37763230  0.32679111  0.75556886    -0.20050
C643        C  0.08222032  0.30334651  0.85340500    -0.21480
C644        C  0.11218793  0.29810471  0.87678624    -0.09520
C645        C  0.11271676  0.27023684  0.89948845     0.29330
C646        C  0.08508587  0.24660867  0.89724802    -0.21480
C647        C  0.05597425  0.25041428  0.87283611    -0.09540
C648        C  0.05425981  0.27994846  0.85152963     0.29340
F649        F  0.02634465  0.28502886  0.82788355    -0.20060
H650        H  0.08098165  0.32432417  0.83552611     0.17710
H651        H  0.08672114  0.22481920  0.91452391     0.17710
F652        F  0.14059753  0.26425519  0.92300020    -0.20050
C653        C  0.33564340  0.25678668  0.89565223    -0.21480
C654        C  0.30540378  0.25074108  0.87298523    -0.09520
C655        C  0.30332785  0.22005610  0.85273319     0.29330
C656        C  0.33182789  0.19766715  0.85388650    -0.21480
C657        C  0.36268025  0.20504424  0.87555810    -0.09540
C658        C  0.36379497  0.23427617  0.89717946     0.29340
F659        F  0.39266299  0.24279091  0.91877715    -0.20060
H660        H  0.33783178  0.27963640  0.91206143     0.17710
H661        H  0.33013019  0.17554079  0.83687960     0.17710
F662        F  0.27440119  0.21273573  0.83083813    -0.20050
C663        C  0.15053781  0.23146448  0.77855628    -0.21480
C664        C  0.15317427  0.27013249  0.77823210    -0.09520
C665        C  0.13689016  0.28979672  0.75100069     0.29330
C666        C  0.11878566  0.27089098  0.72461573    -0.21480
C667        C  0.11627462  0.23221279  0.72489207    -0.09540
C668        C  0.13242252  0.21256015  0.75217534     0.29340
F669        F  0.13168953  0.17496848  0.75320709    -0.20060
H670        H  0.16283032  0.21576320  0.79913315     0.17710
H671        H  0.10656400  0.28657918  0.70400710     0.17710
F672        F  0.13769165  0.32738786  0.74994954    -0.20050
C673        C  0.25072067  0.35647763  0.51656967    -0.21480
C674        C  0.26856443  0.32704713  0.53398037    -0.09520
C675        C  0.27901671  0.29717824  0.51779627     0.29330
C676        C  0.27136266  0.29678781  0.98498621    -0.21480
C677        C  0.25380587  0.32636259  0.96777415    -0.09540
C678        C  0.24345053  0.35623184  0.98379963     0.29340
F679        F  0.22551049  0.38472349  0.96773894    -0.20060
H680        H  0.24214059  0.37966651  0.52831137     0.17710
H681        H  0.27983805  0.27373428  0.97299887     0.17710
F682        F  0.29732367  0.26875007  0.53356514    -0.20050
C683        C  0.28662788  0.38172693  0.77907871    -0.21480
C684        C  0.25260159  0.37963676  0.78042257    -0.09520
C685        C  0.22737571  0.37988377  0.75218312     0.29330
C686        C  0.23623485  0.37996914  0.72327003    -0.21480
C687        C  0.27030129  0.38090249  0.72188930    -0.09540
C688        C  0.29545800  0.38297566  0.75014731     0.29340
F689        F  0.32870475  0.38410702  0.74993786    -0.20060
H690        H  0.30645756  0.38174248  0.80047542     0.17710
H691        H  0.21641303  0.37847019  0.70191082     0.17710
F692        F  0.19416695  0.37779145  0.75241837    -0.20050
C693        C  0.03973228  0.02263635  0.60329566    -0.21480
C694        C  0.06819630  0.04217464  0.61997767    -0.09520
C695        C  0.09779819  0.02228213  0.63359966     0.29330
C696        C  0.09745346  0.98338592  0.63333729    -0.21480
C697        C  0.06766807  0.96397135  0.61955732    -0.09540
C698        C  0.03940182  0.98398853  0.60298815     0.29340
F699        F  0.01061378  0.96624382  0.58813540    -0.20060
H700        H  0.01686031  0.03730446  0.59204378     0.17710
H701        H  0.11958985  0.96859650  0.64612911     0.17710
F702        F  0.12592753  0.04012098  0.64978214    -0.20050
C703        C  0.48302208  0.98276132  0.89684792    -0.21480
C704        C  0.45443336  0.96335769  0.88022904    -0.09520
C705        C  0.42484678  0.98339246  0.86684452     0.29330
C706        C  0.42531789  0.02229433  0.86726999    -0.21480
C707        C  0.45521173  0.04157871  0.88097771    -0.09540
C708        C  0.48349367  0.02139604  0.89729296     0.29340
F709        F  0.51241931  0.03896068  0.91204941    -0.20060
H710        H  0.50590101  0.96799407  0.90796350     0.17710
H711        H  0.40314356  0.03721064  0.85468866     0.17710
F712        F  0.39656624  0.96569596  0.85081190    -0.20050
C713        C  0.49630998  0.79844663  0.98366631    -0.21480
C714        C  0.50523305  0.82930102  0.96769584    -0.09520
C715        C  0.02113926  0.85975390  0.98540333     0.29330
C716        C  0.02726936  0.85944454  0.51811403    -0.21480
C717        C  0.01827566  0.82869575  0.53395554    -0.09540
C718        C  0.50283245  0.79803658  0.51647882     0.29340
F719        F  0.49299426  0.76824421  0.53101514    -0.20060
H720        H  0.48387729  0.77472805  0.97074695     0.17710
H721        H  0.03951928  0.88318650  0.53116652     0.17710
F722        F  0.03117919  0.88976700  0.97128158    -0.20050
C723        C  0.48645121  0.88710387  0.72252640    -0.21480
C724        C  0.02050067  0.88626376  0.72104515    -0.09520
C725        C  0.04573585  0.88713373  0.74928625     0.29330
C726        C  0.03693512  0.88618054  0.77826002    -0.21480
C727        C  0.50287533  0.88566682  0.77972365    -0.09540
C728        C  0.47765045  0.88747027  0.75149930     0.29340
F729        F  0.44438623  0.88731663  0.75175388    -0.20060
H730        H  0.46655685  0.88662436  0.70118167     0.17710
H731        H  0.05681445  0.88504540  0.79959205     0.17710
F732        F  0.07896267  0.88667268  0.74898917    -0.20050
C733        C  0.29292505  0.52338523  0.64345267    -0.21480
C734        C  0.31572918  0.54310573  0.63019030    -0.09520
C735        C  0.33954628  0.52327678  0.61799071     0.29330
C736        C  0.33935319  0.48409710  0.61825716    -0.21480
C737        C  0.31544260  0.46473022  0.63071419    -0.09540
C738        C  0.29282427  0.48504787  0.64395984     0.29340
F739        F  0.27091861  0.46787721  0.65837473    -0.20060
H740        H  0.27510243  0.53780822  0.65407017     0.17710
H741        H  0.35731277  0.46900531  0.60833083     0.17710
F742        F  0.36209010  0.54155413  0.60513813    -0.20050
C743        C  0.18573232  0.74630892  0.60622096    -0.21480
C744        C  0.21667303  0.75394908  0.62739685    -0.09520
C745        C  0.21926447  0.78597659  0.64625437     0.29330
C746        C  0.19076332  0.80831510  0.64517911    -0.21480
C747        C  0.15936874  0.79955081  0.62495324    -0.09540
C748        C  0.15754676  0.76871699  0.60478338     0.29340
F749        F  0.12802107  0.75856822  0.58484385    -0.20060
H750        H  0.18302012  0.72231174  0.59095338     0.17710
H751        H  0.19297391  0.83166444  0.66107741     0.17710
F752        F  0.24882990  0.79489088  0.66666348    -0.20050
C753        C  0.43991520  0.70559919  0.65195599    -0.21480
C754        C  0.41120575  0.70783815  0.62673228    -0.09520
C755        C  0.41179377  0.73282214  0.60211999     0.29330
C756        C  0.43921471  0.75670142  0.60402513    -0.21480
C757        C  0.46697745  0.75585319  0.63002183    -0.09540
C758        C  0.46764951  0.72918681  0.65355488     0.29340
F759        F  0.49417254  0.72736983  0.67897693    -0.20060
H760        H  0.44021068  0.68695640  0.67141366     0.17710
H761        H  0.43855000  0.77632113  0.58514013     0.17710
F762        F  0.38520396  0.73558729  0.57682255    -0.20050
C763        C  0.38958992  0.76559444  0.72022550    -0.21480
C764        C  0.36680293  0.73747589  0.72325291    -0.09520
C765        C  0.36428466  0.72648291  0.75342846     0.29330
C766        C  0.38434843  0.74337097  0.77998604    -0.21480
C767        C  0.40710481  0.77152952  0.77695902    -0.09540
C768        C  0.40968589  0.78244374  0.74679011     0.29340
F769        F  0.43195130  0.80901971  0.74291737    -0.20060
H770        H  0.39253280  0.77387933  0.69728481     0.17710
H771        H  0.38141144  0.73506702  0.80292416     0.17710
F772        F  0.34214882  0.69975005  0.75731882    -0.20050
C773        C  0.23769033  0.48265736  0.86970206    -0.21480
C774        C  0.20983316  0.46287957  0.87482458    -0.09520
C775        C  0.18182524  0.48292710  0.87977128     0.29330
C776        C  0.18207277  0.52210432  0.87923396    -0.21480
C777        C  0.21017573  0.54149826  0.87369295    -0.09540
C778        C  0.23789085  0.52092759  0.86880051     0.29340
F779        F  0.26501532  0.53747123  0.86149059    -0.20060
H780        H  0.25945258  0.46847251  0.86507643     0.17710
H781        H  0.16031120  0.53718256  0.88282833     0.17710
F782        F  0.15443560  0.46487712  0.88498688    -0.20050
C783        C  0.11603263  0.74029796  0.89352634    -0.21480
C784        C  0.11266064  0.70769961  0.87542725    -0.09520
C785        C  0.08047010  0.69843578  0.85686995     0.29330
C786        C  0.05279866  0.72215590  0.85574240    -0.21480
C787        C  0.05686093  0.75579700  0.87258869    -0.09540
C788        C  0.08884889  0.76419694  0.89192791     0.29340
F789        F  0.09432058  0.79593915  0.90904850    -0.20060
H790        H  0.14040596  0.74862334  0.90789258     0.17710
H791        H  0.02838727  0.71468048  0.84097740     0.17710
F792        F  0.07588789  0.66708924  0.83924733    -0.20050
C793        C  0.36314745  0.77277799  0.89673187    -0.21480
C794        C  0.36174107  0.80087831  0.87426373    -0.09520
C795        C  0.33079182  0.80713613  0.85228779     0.29330
C796        C  0.30277243  0.78418383  0.85179522    -0.21480
C797        C  0.30522598  0.75436832  0.87284592    -0.09540
C798        C  0.33550681  0.74965507  0.89595993     0.29340
F799        F  0.33881672  0.72214904  0.91760626    -0.20060
H800        H  0.38639292  0.76718707  0.91407298     0.17710
H801        H  0.27960195  0.78878216  0.83408632     0.17710
F802        F  0.32794768  0.83427576  0.83040319    -0.20050
C803        C  0.12308453  0.73541681  0.72256939    -0.21480
C804        C  0.11718970  0.77351514  0.72434419    -0.09520
C805        C  0.13020413  0.79227227  0.75292993     0.29330
C806        C  0.14836882  0.77306381  0.77908080    -0.21480
C807        C  0.15421717  0.73496451  0.77731796    -0.09540
C808        C  0.14135758  0.71622332  0.74868197     0.29340
F809        F  0.14582462  0.67919963  0.74583703    -0.20060
H810        H  0.11352548  0.72035238  0.70091739     0.17710
H811        H  0.15797892  0.78813765  0.80071920     0.17710
F812        F  0.12615323  0.82935554  0.75564558    -0.20050
C813        C  0.25094492  0.70790761  0.51648908    -0.21480
C814        C  0.26984002  0.67900267  0.53348301    -0.09520
C815        C  0.28140873  0.65009749  0.51731817     0.29330
C816        C  0.27401393  0.65014189  0.98455549    -0.21480
C817        C  0.25484428  0.67890840  0.96736340    -0.09540
C818        C  0.24317355  0.70778896  0.98370158     0.29340
F819        F  0.22353368  0.73541150  0.96809751    -0.20060
H820        H  0.24153457  0.73018074  0.52863920     0.17710
H821        H  0.28353467  0.62773950  0.97264497     0.17710
F822        F  0.30063243  0.62236115  0.53323566    -0.20050
C823        C  0.29423369  0.62419414  0.74811837    -0.21480
C824        C  0.26860017  0.62653350  0.72031847    -0.09520
C825        C  0.23466033  0.62691806  0.72232571     0.29330
C826        C  0.22674153  0.62616006  0.75165962    -0.21480
C827        C  0.25246667  0.62600446  0.77946131    -0.09540
C828        C  0.28634320  0.62445156  0.77743868     0.29340
F829        F  0.31184527  0.62377185  0.80376147    -0.20060
H830        H  0.32057001  0.62391277  0.74723232     0.17710
H831        H  0.20046422  0.62747646  0.75264823     0.17710
F832        F  0.20917000  0.62865460  0.69604007    -0.20050
O833        O  0.75086381  0.64877010  0.41852767    -0.85520
O834        O  0.73941463  0.59720516  0.37098531    -0.82570
C835        C  0.71122427  0.58253598  0.37092532     0.97940
O836        O  0.68490300  0.60234899  0.36537879    -0.82600
O837        O  0.64441628  0.66768762  0.34921610    -0.85250
C838        C  0.64405120  0.68851219  0.37241419     1.02470
O839        O  0.67145245  0.69789500  0.39063532    -0.78010
O840        O  0.73788559  0.70804077  0.41737356    -0.78200
C841        C  0.74718129  0.67843492  0.43266705     1.02420
O842        O  0.78296903  0.69609550  0.38295468    -0.85520
O843        O  0.76314293  0.64846219  0.33191248    -0.82580
C844        C  0.74354516  0.63087196  0.30994770     0.97960
O845        O  0.71555850  0.61837037  0.31354424    -0.82610
O846        O  0.68018205  0.68149324  0.30252827    -0.85220
C847        C  0.67227210  0.71464791  0.30550505     1.02430
O848        O  0.67826591  0.72985150  0.33235892    -0.78040
O849        O  0.74692102  0.73665087  0.35793303    -0.78180
C850        C  0.77691497  0.72776440  0.37070056     1.02390
Cr851      Cr  0.75621115  0.64902378  0.37506086     1.93740
Cr852      Cr  0.68367339  0.64414590  0.33525790     1.93210
Cr853      Cr  0.70916364  0.71477811  0.37355157     1.39100
O854        O  0.71613480  0.66943589  0.36132492    -1.23270
O855        O  0.77401904  0.64903633  0.08207589    -0.85520
O856        O  0.78441430  0.59769325  0.12978677    -0.82570
C857        C  0.81321377  0.58400662  0.13066446     0.97940
O858        O  0.83898161  0.60467107  0.13634117    -0.82600
O859        O  0.87780931  0.67039871  0.15287185    -0.85250
C860        C  0.87892410  0.69034778  0.12935336     1.02470
O861        O  0.85190280  0.69996861  0.11061599    -0.78010
O862        O  0.78484150  0.70891633  0.08300969    -0.78200
C863        C  0.77694692  0.67886896  0.06792991     1.02420
O864        O  0.73973017  0.69631264  0.11653294    -0.85520
O865        O  0.75861760  0.64887772  0.16771498    -0.82580
C866        C  0.77802785  0.63170219  0.19004635     0.97960
O867        O  0.80641542  0.61983906  0.18705034    -0.82610
O868        O  0.84033896  0.68414819  0.19846099    -0.85220
C869        C  0.84864180  0.71715473  0.19524008     1.02430
O870        O  0.84378676  0.73172846  0.16823285    -0.78040
O871        O  0.77516594  0.73718909  0.14221128    -0.78180
C872        C  0.74532628  0.72788455  0.12928181     1.02390
Cr873      Cr  0.76693176  0.64943003  0.12498303     1.93740
Cr874      Cr  0.83860509  0.64635602  0.16618813     1.93210
Cr875      Cr  0.81333976  0.71611351  0.12698397     1.39100
O876        O  0.80650378  0.67073941  0.13935460    -1.23270
O877        O  0.98724784  0.91199855  0.37212690    -0.85520
O878        O  0.00063167  0.85942994  0.41863425    -0.82570
C879        C  0.99746564  0.82970650  0.43286278     0.97940
O880        O  0.98808691  0.80007765  0.41757543    -0.82600
O881        O  0.92108243  0.80894932  0.38971954    -0.85250
C882        C  0.89392948  0.81801626  0.37086215     1.02470
O883        O  0.89493923  0.83723241  0.34695846    -0.78010
O884        O  0.93272551  0.90273840  0.36465937    -0.78200
C885        C  0.95811170  0.92374732  0.37282604     1.02420
O886        O  0.01352190  0.86247076  0.33208881    -0.85520
O887        O  0.53372261  0.81400991  0.38221131    -0.82580
C888        C  0.52813192  0.78188911  0.37057172     0.97960
O889        O  0.99824188  0.77187785  0.35855832    -0.82610
O890        O  0.92977314  0.77742916  0.33201235    -0.85220
C891        C  0.92512516  0.79195549  0.30497515     1.02430
O892        O  0.93332893  0.82503339  0.30178134    -0.78040
O893        O  0.96540677  0.89089138  0.31378251    -0.78180
C894        C  0.99369582  0.87968669  0.31012123     1.02390
Cr895      Cr  0.00595374  0.86045223  0.37513441     1.93740
Cr896      Cr  0.95988277  0.79302916  0.37348027     1.93210
Cr897      Cr  0.93400545  0.86239115  0.33422244     1.39100
O898        O  0.96652693  0.83848714  0.36106405    -1.23270
O899        O  0.53512407  0.91259197  0.12842943    -0.85520
O900        O  0.52265133  0.85948285  0.08232781    -0.82570
C901        C  0.52510393  0.82926141  0.06854318     0.97940
O902        O  0.53299267  0.79958089  0.08414948    -0.82600
O903        O  0.60019513  0.80875534  0.11045355    -0.85250
C904        C  0.62776651  0.81780367  0.12859444     1.02470
O905        O  0.62768950  0.83811987  0.15218290    -0.78010
O906        O  0.58945672  0.90348161  0.13473558    -0.78200
C907        C  0.56400818  0.92438228  0.12696492     1.02420
O908        O  0.50942008  0.86333120  0.16865464    -0.85520
O909        O  0.98893666  0.81403367  0.11877119    -0.82580
C910        C  0.49489973  0.78265547  0.13182176     0.97960
O911        O  0.52477359  0.77363392  0.14464684    -0.82610
O912        O  0.59335285  0.77858117  0.16928087    -0.85220
C913        C  0.59912723  0.79380430  0.19613095     1.02430
O914        O  0.59112911  0.82698617  0.19894463    -0.78040
O915        O  0.55782432  0.89177573  0.18673361    -0.78180
C916        C  0.52951627  0.88050241  0.19054541     1.02390
Cr917      Cr  0.51674163  0.86089589  0.12562536     1.93740
Cr918      Cr  0.56230976  0.79346927  0.12805175     1.93210
Cr919      Cr  0.58912403  0.86358419  0.16578925     1.39100
O920        O  0.55619595  0.83919386  0.13984484    -1.23270
O921        O  0.73930610  0.40756834  0.37176520    -0.85520
O922        O  0.74999982  0.35603861  0.41909815    -0.82570
C923        C  0.74681645  0.32629292  0.43326542     0.97940
O924        O  0.73858728  0.29629174  0.41814471    -0.82600
O925        O  0.67155568  0.30555864  0.39160222    -0.85250
C926        C  0.64425616  0.31579556  0.37368748     1.02470
O927        O  0.64481562  0.33666832  0.35057185    -0.78010
O928        O  0.68494282  0.40180666  0.36673099    -0.78200
C929        C  0.71109397  0.42187873  0.37217416     1.02420
O930        O  0.76324974  0.35652085  0.33272877    -0.85520
O931        O  0.78298522  0.30866414  0.38378686    -0.82580
C932        C  0.77701714  0.27716993  0.37103155     0.97960
O933        O  0.74704838  0.26826955  0.35819882    -0.82610
O934        O  0.67826413  0.27450345  0.33312005    -0.85220
C935        C  0.67185191  0.29000283  0.30638685     1.02430
O936        O  0.67995738  0.32311524  0.30347496    -0.78040
O937        O  0.71548172  0.38626979  0.31453806    -0.78180
C938        C  0.74351607  0.37406264  0.31082030     1.02390
Cr939      Cr  0.75610055  0.35574217  0.37587635     1.93740
Cr940      Cr  0.70942209  0.28950816  0.37426734     1.93210
Cr941      Cr  0.68369795  0.36029957  0.33633792     1.39100
O942        O  0.71616637  0.33502195  0.36212359    -1.23270
O943        O  0.78441181  0.40972735  0.13036944    -0.85520
O944        O  0.77269812  0.35768762  0.08275248    -0.82570
C945        C  0.77608161  0.32781927  0.06872635     0.97940
O946        O  0.78495910  0.29823426  0.08418266    -0.82600
O947        O  0.85155880  0.30795512  0.11094531    -0.85250
C948        C  0.87895666  0.31722884  0.12925375     1.02470
O949        O  0.87857416  0.33780571  0.15259716    -0.78010
O950        O  0.83894276  0.40333335  0.13633549    -0.78200
C951        C  0.81307115  0.42376847  0.13114220     1.02420
O952        O  0.75985207  0.35875369  0.16930870    -0.85520
O953        O  0.74001483  0.31085036  0.11849763    -0.82580
C954        C  0.74587025  0.27927981  0.13111052     0.97960
O955        O  0.77582966  0.27016084  0.14373635    -0.82610
O956        O  0.84452534  0.27627410  0.16917187    -0.85220
C957        C  0.85044983  0.29135241  0.19606542     1.02430
O958        O  0.84238973  0.32444375  0.19910624    -0.78040
O959        O  0.80769952  0.38812772  0.18797376    -0.78180
C960        C  0.77956346  0.37596148  0.19146515     1.02390
Cr961      Cr  0.76709169  0.35785707  0.12621745     1.93740
Cr962      Cr  0.81367094  0.29151216  0.12801069     1.93210
Cr963      Cr  0.83950096  0.36180378  0.16644556     1.39100
O964        O  0.80695090  0.33695759  0.14018656    -1.23270
O965        O  0.99982391  0.14613124  0.41915285    -0.85520
O966        O  0.98784151  0.09321262  0.37274442    -0.82570
C967        C  0.95889695  0.08126230  0.37385263     0.97940
O968        O  0.93343351  0.10212067  0.36597820    -0.82600
O969        O  0.89512756  0.16734186  0.34843228    -0.85250
C970        C  0.89462548  0.18737642  0.37207681     1.02470
O971        O  0.92201264  0.19662330  0.39045542    -0.78010
O972        O  0.98923074  0.20602697  0.41741072    -0.78200
C973        C  0.99722537  0.17632723  0.43293153     1.02420
O974        O  0.53376924  0.19191113  0.38307421    -0.85520
O975        O  0.01388782  0.14281980  0.33289041    -0.82580
C976        C  0.99398814  0.12566034  0.31083108     0.97960
O977        O  0.96566091  0.11424375  0.31446729    -0.82610
O978        O  0.93231128  0.17903511  0.30224579    -0.85220
C979        C  0.92408832  0.21212369  0.30513233     1.02430
O980        O  0.92955921  0.22720550  0.33202740    -0.78040
O981        O  0.99806284  0.23258245  0.35744868    -0.78180
C982        C  0.52790008  0.22353317  0.37043524     1.02390
Cr983      Cr  0.00611688  0.14498051  0.37587267     1.93740
Cr984      Cr  0.93402744  0.14221819  0.33516887     1.93210
Cr985      Cr  0.96024615  0.21224408  0.37339650     1.39100
O986        O  0.96667103  0.16661761  0.36146414    -1.23270
O987        O  0.52138076  0.14649185  0.08228489    -0.85520
O988        O  0.53533108  0.09336632  0.12846641    -0.82570
C989        C  0.56438927  0.08176510  0.12731897     0.97940
O990        O  0.58971523  0.10289379  0.13511620    -0.82600
O991        O  0.62787795  0.16835619  0.15333216    -0.85250
C992        C  0.62832081  0.18858017  0.12982406     1.02470
O993        O  0.60092227  0.19721980  0.11128927    -0.78010
O994        O  0.53422925  0.20588674  0.08381819    -0.78200
C995        C  0.52463952  0.17640887  0.06833995     1.02420
O996        O  0.98868006  0.19135138  0.11924881    -0.85520
O997        O  0.50954021  0.14251289  0.16910324    -0.82580
C998        C  0.52958822  0.12529364  0.19091392     0.97960
O999        O  0.55773108  0.11392895  0.18688038    -0.82610
O1000       O  0.59030601  0.17907842  0.19917742    -0.85220
C1001       C  0.59826219  0.21229648  0.19650601     1.02430
O1002       O  0.59259979  0.22773649  0.16973506    -0.78040
O1003       O  0.52421770  0.23314582  0.14335606    -0.78180
C1004       C  0.49435018  0.22336596  0.13108854     1.02390
Cr1005     Cr  0.51657969  0.14492751  0.12592693     1.93740
Cr1006     Cr  0.58894951  0.14261416  0.16616305     1.93210
Cr1007     Cr  0.56244152  0.21257341  0.12801849     1.39100
O1008       O  0.55607529  0.16687114  0.13994155    -1.23270
C1009       C  0.98856617  0.15074749  0.48300225    -0.21480
C1010       C  0.00402330  0.17702257  0.46743306    -0.09520
C1011       C  0.52580738  0.20356541  0.48504803     0.29330
C1012       C  0.53212784  0.20354854  0.01786488    -0.21240
C1013       C  0.51678823  0.17710427  0.03357772    -0.09540
C1014       C  0.99457271  0.15090240  0.01573268     0.29340
F1015       F  0.97808074  0.12589899  0.02982206    -0.20060
H1016       H  0.97139855  0.13037402  0.46970832     0.17710
H1017       H  0.54955204  0.22377171  0.03102966     0.17710
F1018       F  0.54194825  0.22853211  0.47058310    -0.20050
C1019       C  0.53723530  0.11995532  0.27877406    -0.21480
C1020       C  0.00318252  0.11995341  0.28033893    -0.09520
C1021       C  0.97795431  0.11797564  0.25211579     0.29330
C1022       C  0.98669476  0.11841821  0.22309952    -0.21480
C1023       C  0.52071011  0.11962888  0.22152303    -0.09540
C1024       C  0.54599226  0.11921016  0.24974718     0.29340
F1025       F  0.57919489  0.12037840  0.24937550    -0.20060
H1026       H  0.55714652  0.12135800  0.30007364     0.17710
H1027       H  0.96675982  0.11863921  0.20177870     0.17710
F1028       F  0.94471630  0.11781199  0.25240856    -0.20050
C1029       C  0.69124651  0.19890278  0.14738071    -0.21480
C1030       C  0.66003550  0.20707091  0.12659700    -0.09520
C1031       C  0.65840956  0.23750413  0.10607140     0.29330
C1032       C  0.68655285  0.26008748  0.10763658    -0.21480
C1033       C  0.71730092  0.25301877  0.12928167    -0.09540
C1034       C  0.71973799  0.22140711  0.14856487     0.29340
F1035       F  0.74910976  0.21310221  0.16947482    -0.20060
H1036       H  0.69330624  0.17589617  0.16357001     0.17710
H1037       H  0.68397042  0.28373871  0.09204120     0.17710
F1038       F  0.62909440  0.24706924  0.08556610    -0.20050
C1039       C  0.96972545  0.28230833  0.14719940    -0.21480
C1040       C  0.96585117  0.24972105  0.12898093    -0.09520
C1041       C  0.93439649  0.24276047  0.10816438     0.29330
C1042       C  0.90735985  0.26689469  0.10660974    -0.21480
C1043       C  0.91041930  0.29826549  0.12616377    -0.09540
C1044       C  0.94224156  0.30624697  0.14606074     0.29340
F1045       F  0.94657879  0.33640106  0.16511210    -0.20060
H1046       H  0.99378731  0.28869677  0.16308091     0.17710
H1047       H  0.88330340  0.25966746  0.09107679     0.17710
F1048       F  0.92935001  0.21224377  0.08948840    -0.20050
C1049       C  0.87453694  0.23291168  0.22232432    -0.21480
C1050       C  0.86868183  0.27100520  0.22416059    -0.09520
C1051       C  0.88182609  0.28973808  0.25273728     0.29330
C1052       C  0.90019849  0.27052671  0.27877660    -0.21480
C1053       C  0.90603307  0.23243313  0.27695277    -0.09540
C1054       C  0.89291222  0.21369519  0.24837901     0.29340
F1055       F  0.89707244  0.17663167  0.24559691    -0.20060
H1056       H  0.86478949  0.21785583  0.20069439     0.17710
H1057       H  0.90992209  0.28558759  0.30040909     0.17710
F1058       F  0.87763232  0.32679111  0.25556886    -0.20050
C1059       C  0.58222032  0.30334650  0.35340499    -0.21480
C1060       C  0.61218793  0.29810471  0.37678624    -0.09520
C1061       C  0.61271677  0.27023683  0.39948844     0.29330
C1062       C  0.58508588  0.24660866  0.39724801    -0.21480
C1063       C  0.55597426  0.25041427  0.37283610    -0.09540
C1064       C  0.55425981  0.27994846  0.35152962     0.29340
F1065       F  0.52634466  0.28502886  0.32788355    -0.20060
H1066       H  0.58098165  0.32432417  0.33552610     0.17710
H1067       H  0.58672115  0.22481919  0.41452390     0.17710
F1068       F  0.64059753  0.26425518  0.42300019    -0.20050
C1069       C  0.83564342  0.25678670  0.39565221    -0.21480
C1070       C  0.80540379  0.25074109  0.37298523    -0.09520
C1071       C  0.80332785  0.22005610  0.35273320     0.29330
C1072       C  0.83182790  0.19766715  0.35388651    -0.21480
C1073       C  0.86268026  0.20504425  0.37555810    -0.09540
C1074       C  0.86379498  0.23427619  0.39717944     0.29340
F1075       F  0.89266301  0.24279095  0.41877712    -0.20060
H1076       H  0.83783180  0.27963643  0.41206141     0.17710
H1077       H  0.83013019  0.17554078  0.33687961     0.17710
F1078       F  0.77440119  0.21273571  0.33083815    -0.20050
C1079       C  0.65053780  0.23146448  0.27855629    -0.21480
C1080       C  0.65317427  0.27013249  0.27823210    -0.09520
C1081       C  0.63689017  0.28979672  0.25100069     0.29330
C1082       C  0.61878567  0.27089098  0.22461572    -0.21480
C1083       C  0.61627462  0.23221279  0.22489207    -0.09540
C1084       C  0.63242251  0.21256015  0.25217534     0.29340
F1085       F  0.63168951  0.17496848  0.25320710    -0.20060
H1086       H  0.66283031  0.21576320  0.29913316     0.17710
H1087       H  0.60656402  0.28657917  0.20400709     0.17710
F1088       F  0.63769168  0.32738786  0.24994953    -0.20050
C1089       C  0.75072069  0.35647764  0.01656967    -0.21480
C1090       C  0.76856443  0.32704713  0.03398037    -0.09520
C1091       C  0.77901669  0.29717823  0.01779627     0.29330
C1092       C  0.77136267  0.29678781  0.48498621    -0.21480
C1093       C  0.75380587  0.32636259  0.46777415    -0.09540
C1094       C  0.74345053  0.35623184  0.48379963     0.29340
F1095       F  0.72551048  0.38472348  0.46773894    -0.20060
H1096       H  0.74214063  0.37966653  0.02831138     0.17710
H1097       H  0.77983806  0.27373428  0.47299887     0.17710
F1098       F  0.79732363  0.26875004  0.03356514    -0.20050
C1099       C  0.78662788  0.38172693  0.27907871    -0.21480
C1100       C  0.75260159  0.37963676  0.28042257    -0.09520
C1101       C  0.72737571  0.37988378  0.25218312     0.29330
C1102       C  0.73623485  0.37996914  0.22327003    -0.21480
C1103       C  0.77030130  0.38090249  0.22188930    -0.09540
C1104       C  0.79545800  0.38297566  0.25014731     0.29340
F1105       F  0.82870475  0.38410701  0.24993786    -0.20060
H1106       H  0.80645757  0.38174247  0.30047542     0.17710
H1107       H  0.71641304  0.37847019  0.20191082     0.17710
F1108       F  0.69416695  0.37779146  0.25241837    -0.20050
C1109       C  0.53973228  0.02263636  0.10329566    -0.21480
C1110       C  0.56819629  0.04217465  0.11997767    -0.09520
C1111       C  0.59779818  0.02228213  0.13359965     0.29330
C1112       C  0.59745345  0.98338593  0.13333729    -0.21480
C1113       C  0.56766806  0.96397136  0.11955732    -0.09540
C1114       C  0.53940182  0.98398853  0.10298815     0.29340
F1115       F  0.51061378  0.96624382  0.08813539    -0.20060
H1116       H  0.51686031  0.03730446  0.09204377     0.17710
H1117       H  0.61958985  0.96859650  0.14612911     0.17710
F1118       F  0.62592753  0.04012099  0.14978213    -0.20050
C1119       C  0.98302208  0.98276132  0.39684793    -0.21480
C1120       C  0.95443337  0.96335769  0.38022904    -0.09520
C1121       C  0.92484678  0.98339246  0.36684451     0.29330
C1122       C  0.92531789  0.02229433  0.36726998    -0.21480
C1123       C  0.95521173  0.04157871  0.38097771    -0.09540
C1124       C  0.98349367  0.02139605  0.39729297     0.29340
F1125       F  0.01241931  0.03896068  0.41204941    -0.20060
H1126       H  0.00590101  0.96799407  0.40796350     0.17710
H1127       H  0.90314357  0.03721064  0.35468865     0.17710
F1128       F  0.89656625  0.96569596  0.35081189    -0.20050
C1129       C  0.99630995  0.79844664  0.48366631    -0.21480
C1130       C  0.00523306  0.82930101  0.46769584    -0.09520
C1131       C  0.52113931  0.85975387  0.48540334     0.29330
C1132       C  0.52726932  0.85944456  0.01811403    -0.21480
C1133       C  0.51827566  0.82869576  0.03395554    -0.09540
C1134       C  0.00283249  0.79803657  0.01647882     0.29340
F1135       F  0.99299434  0.76824417  0.03101514    -0.20060
H1136       H  0.98387723  0.77472808  0.47074695     0.17710
H1137       H  0.53951921  0.88318654  0.03116652     0.17710
F1138       F  0.53117927  0.88976695  0.47128159    -0.20050
C1139       C  0.98645122  0.88710388  0.22252640    -0.21480
C1140       C  0.52050067  0.88626377  0.22104516    -0.09520
C1141       C  0.54573585  0.88713373  0.24928625     0.29330
C1142       C  0.53693513  0.88618054  0.27826002    -0.21480
C1143       C  0.00287534  0.88566682  0.27972366    -0.09540
C1144       C  0.97765046  0.88747028  0.25149931     0.29340
F1145       F  0.94438624  0.88731665  0.25175388    -0.20060
H1146       H  0.96655686  0.88662438  0.20118167     0.17710
H1147       H  0.55681445  0.88504540  0.29959205     0.17710
F1148       F  0.57896267  0.88667268  0.24898917    -0.20050
C1149       C  0.79292502  0.52338523  0.14345264    -0.21480
C1150       C  0.81572918  0.54310574  0.13019030    -0.09520
C1151       C  0.83954629  0.52327679  0.11799072     0.29330
C1152       C  0.83935320  0.48409711  0.11825717    -0.21480
C1153       C  0.81544259  0.46473023  0.13071419    -0.09540
C1154       C  0.79282424  0.48504787  0.14395980     0.29340
F1155       F  0.77091856  0.46787722  0.15837468    -0.20060
H1156       H  0.77510238  0.53780823  0.15407012     0.17710
H1157       H  0.85731280  0.46900532  0.10833086     0.17710
F1158       F  0.86209013  0.54155414  0.10513818    -0.20050
C1159       C  0.68573233  0.74630894  0.10622096    -0.21480
C1160       C  0.71667303  0.75394909  0.12739685    -0.09520
C1161       C  0.71926447  0.78597660  0.14625437     0.29330
C1162       C  0.69076332  0.80831511  0.14517912    -0.21480
C1163       C  0.65936874  0.79955082  0.12495324    -0.09540
C1164       C  0.65754677  0.76871702  0.10478338     0.29340
F1165       F  0.62802109  0.75856825  0.08484384    -0.20060
H1166       H  0.68302013  0.72231177  0.09095336     0.17710
H1167       H  0.69297391  0.83166444  0.16107743     0.17710
F1168       F  0.74882990  0.79489087  0.16666350    -0.20050
C1169       C  0.93991520  0.70559920  0.15195599    -0.21480
C1170       C  0.91120575  0.70783815  0.12673228    -0.09520
C1171       C  0.91179378  0.73282215  0.10212000     0.29330
C1172       C  0.93921472  0.75670143  0.10402513    -0.21480
C1173       C  0.96697746  0.75585319  0.13002184    -0.09540
C1174       C  0.96764951  0.72918681  0.15355489     0.29340
F1175       F  0.99417254  0.72736984  0.17897693    -0.20060
H1176       H  0.94021068  0.68695640  0.17141367     0.17710
H1177       H  0.93855000  0.77632114  0.08514013     0.17710
F1178       F  0.88520397  0.73558729  0.07682255    -0.20050
C1179       C  0.88958992  0.76559445  0.22022550    -0.21480
C1180       C  0.86680294  0.73747590  0.22325291    -0.09520
C1181       C  0.86428467  0.72648291  0.25342846     0.29330
C1182       C  0.88434845  0.74337098  0.27998604    -0.21480
C1183       C  0.90710482  0.77152953  0.27695902    -0.09540
C1184       C  0.90968590  0.78244375  0.24679011     0.29340
F1185       F  0.93195129  0.80901973  0.24291737    -0.20060
H1186       H  0.89253280  0.77387934  0.19728481     0.17710
H1187       H  0.88141145  0.73506702  0.30292416     0.17710
F1188       F  0.84214883  0.69975004  0.25731882    -0.20050
C1189       C  0.73769035  0.48265736  0.36970210    -0.21480
C1190       C  0.70983316  0.46287958  0.37482459    -0.09520
C1191       C  0.68182523  0.48292711  0.37977127     0.29330
C1192       C  0.68207276  0.52210432  0.37923395    -0.21480
C1193       C  0.71017574  0.54149827  0.37369296    -0.09540
C1194       C  0.73789087  0.52092759  0.36880055     0.29340
F1195       F  0.76501535  0.53747123  0.36149066    -0.20060
H1196       H  0.75945261  0.46847251  0.36507649     0.17710
H1197       H  0.66031118  0.53718256  0.38282829     0.17710
F1198       F  0.65443558  0.46487712  0.38498683    -0.20050
C1199       C  0.61603261  0.74029792  0.39352638    -0.21480
C1200       C  0.61266063  0.70769960  0.37542725    -0.09520
C1201       C  0.58047010  0.69843579  0.35686992     0.29330
C1202       C  0.55279866  0.72215592  0.35574238    -0.21480
C1203       C  0.55686093  0.75579699  0.37258870    -0.09540
C1204       C  0.58884888  0.76419690  0.39192795     0.29340
F1205       F  0.59432055  0.79593908  0.40904859    -0.20060
H1206       H  0.64040594  0.74862328  0.40789265     0.17710
H1207       H  0.52838729  0.71468052  0.34097734     0.17710
F1208       F  0.57588790  0.66708929  0.33924727    -0.20050
C1209       C  0.86314746  0.77277798  0.39673186    -0.21480
C1210       C  0.86174108  0.80087831  0.37426373    -0.09520
C1211       C  0.83079182  0.80713614  0.35228780     0.29330
C1212       C  0.80277243  0.78418384  0.35179523    -0.21480
C1213       C  0.80522599  0.75436832  0.37284592    -0.09540
C1214       C  0.83550682  0.74965506  0.39595992     0.29340
F1215       F  0.83881674  0.72214902  0.41760625    -0.20060
H1216       H  0.88639294  0.76718705  0.41407297     0.17710
H1217       H  0.77960195  0.78878218  0.33408633     0.17710
F1218       F  0.82794768  0.83427578  0.33040320    -0.20050
C1219       C  0.62308453  0.73541682  0.22256940    -0.21480
C1220       C  0.61718971  0.77351514  0.22434420    -0.09520
C1221       C  0.63020414  0.79227228  0.25292993     0.29330
C1222       C  0.64836882  0.77306381  0.27908080    -0.21480
C1223       C  0.65421717  0.73496452  0.27731796    -0.09540
C1224       C  0.64135758  0.71622333  0.24868197     0.29340
F1225       F  0.64582461  0.67919964  0.24583704    -0.20060
H1226       H  0.61352547  0.72035238  0.20091739     0.17710
H1227       H  0.65797894  0.78813766  0.30071920     0.17710
F1228       F  0.62615325  0.82935555  0.25564558    -0.20050
C1229       C  0.75094496  0.70790764  0.01648908    -0.21480
C1230       C  0.76984002  0.67900267  0.03348300    -0.09520
C1231       C  0.78140870  0.65009748  0.01731817     0.29330
C1232       C  0.77401397  0.65014191  0.48455549    -0.21480
C1233       C  0.75484428  0.67890840  0.46736340    -0.09540
C1234       C  0.74317351  0.70778894  0.48370158     0.29340
F1235       F  0.72353361  0.73541145  0.46809750    -0.20060
H1236       H  0.74153463  0.73018079  0.02863920     0.17710
H1237       H  0.78353473  0.62773954  0.47264498     0.17710
F1238       F  0.80063237  0.62236111  0.03323565    -0.20050
C1239       C  0.79423369  0.62419414  0.24811837    -0.21480
C1240       C  0.76860017  0.62653351  0.22031847    -0.09520
C1241       C  0.73466033  0.62691807  0.22232571     0.29330
C1242       C  0.72674153  0.62616007  0.25165962    -0.21480
C1243       C  0.75246667  0.62600447  0.27946131    -0.09540
C1244       C  0.78634320  0.62445156  0.27743868     0.29340
F1245       F  0.81184527  0.62377185  0.30376147    -0.20060
H1246       H  0.82057001  0.62391278  0.24723232     0.17710
H1247       H  0.70046422  0.62747647  0.25264823     0.17710
F1248       F  0.70917000  0.62865462  0.19604007    -0.20050
O1249       O  0.75086381  0.64877010  0.91852767    -0.85520
O1250       O  0.73941463  0.59720516  0.87098531    -0.82570
C1251       C  0.71122427  0.58253598  0.87092532     0.97940
O1252       O  0.68490300  0.60234898  0.86537879    -0.82600
O1253       O  0.64441627  0.66768762  0.84921610    -0.85250
C1254       C  0.64405120  0.68851219  0.87241419     1.02470
O1255       O  0.67145245  0.69789500  0.89063532    -0.78010
O1256       O  0.73788559  0.70804077  0.91737356    -0.78200
C1257       C  0.74718129  0.67843492  0.93266705     1.02420
O1258       O  0.78296902  0.69609550  0.88295468    -0.85520
O1259       O  0.76314293  0.64846219  0.83191247    -0.82580
C1260       C  0.74354516  0.63087196  0.80994770     0.97960
O1261       O  0.71555850  0.61837037  0.81354424    -0.82610
O1262       O  0.68018204  0.68149324  0.80252827    -0.85220
C1263       C  0.67227210  0.71464791  0.80550504     1.02430
O1264       O  0.67826590  0.72985150  0.83235892    -0.78040
O1265       O  0.74692102  0.73665087  0.85793302    -0.78180
C1266       C  0.77691497  0.72776440  0.87070056     1.02390
Cr1267     Cr  0.75621115  0.64902378  0.87506086     1.93740
Cr1268     Cr  0.68367339  0.64414590  0.83525790     1.93210
Cr1269     Cr  0.70916364  0.71477811  0.87355157     1.39100
O1270       O  0.71613480  0.66943588  0.86132492    -1.23270
O1271       O  0.77401904  0.64903632  0.58207588    -0.85520
O1272       O  0.78441430  0.59769324  0.62978677    -0.82570
C1273       C  0.81321377  0.58400662  0.63066446     0.97940
O1274       O  0.83898161  0.60467107  0.63634117    -0.82600
O1275       O  0.87780931  0.67039870  0.65287185    -0.85250
C1276       C  0.87892410  0.69034778  0.62935336     1.02470
O1277       O  0.85190280  0.69996861  0.61061599    -0.78010
O1278       O  0.78484150  0.70891632  0.58300969    -0.78200
C1279       C  0.77694692  0.67886895  0.56792991     1.02420
O1280       O  0.73973017  0.69631264  0.61653294    -0.85520
O1281       O  0.75861760  0.64887772  0.66771498    -0.82580
C1282       C  0.77802785  0.63170219  0.69004635     0.97960
O1283       O  0.80641542  0.61983906  0.68705034    -0.82610
O1284       O  0.84033895  0.68414818  0.69846099    -0.85220
C1285       C  0.84864179  0.71715472  0.69524008     1.02430
O1286       O  0.84378676  0.73172845  0.66823285    -0.78040
O1287       O  0.77516594  0.73718908  0.64221129    -0.78180
C1288       C  0.74532628  0.72788454  0.62928181     1.02390
Cr1289     Cr  0.76693176  0.64943002  0.62498303     1.93740
Cr1290     Cr  0.83860509  0.64635602  0.66618813     1.93210
Cr1291     Cr  0.81333976  0.71611351  0.62698397     1.39100
O1292       O  0.80650377  0.67073940  0.63935460    -1.23270
O1293       O  0.98724783  0.91199855  0.87212690    -0.85520
O1294       O  0.00063166  0.85942994  0.91863425    -0.82570
C1295       C  0.99746564  0.82970650  0.93286278     0.97940
O1296       O  0.98808690  0.80007765  0.91757543    -0.82600
O1297       O  0.92108242  0.80894931  0.88971954    -0.85250
C1298       C  0.89392947  0.81801626  0.87086215     1.02470
O1299       O  0.89493923  0.83723241  0.84695846    -0.78010
O1300       O  0.93272551  0.90273840  0.86465937    -0.78200
C1301       C  0.95811170  0.92374732  0.87282604     1.02420
O1302       O  0.01352190  0.86247076  0.83208881    -0.85520
O1303       O  0.53372260  0.81400991  0.88221131    -0.82580
C1304       C  0.52813192  0.78188911  0.87057172     0.97960
O1305       O  0.99824188  0.77187785  0.85855832    -0.82610
O1306       O  0.92977314  0.77742915  0.83201235    -0.85220
C1307       C  0.92512515  0.79195549  0.80497515     1.02430
O1308       O  0.93332893  0.82503338  0.80178134    -0.78040
O1309       O  0.96540677  0.89089137  0.81378251    -0.78180
C1310       C  0.99369581  0.87968669  0.81012123     1.02390
Cr1311     Cr  0.00595374  0.86045223  0.87513440     1.93740
Cr1312     Cr  0.95988276  0.79302916  0.87348027     1.93210
Cr1313     Cr  0.93400544  0.86239115  0.83422244     1.39100
O1314       O  0.96652693  0.83848714  0.86106405    -1.23270
O1315       O  0.53512407  0.91259197  0.62842943    -0.85520
O1316       O  0.52265133  0.85948285  0.58232781    -0.82570
C1317       C  0.52510393  0.82926140  0.56854318     0.97940
O1318       O  0.53299266  0.79958089  0.58414948    -0.82600
O1319       O  0.60019513  0.80875534  0.61045355    -0.85250
C1320       C  0.62776650  0.81780366  0.62859444     1.02470
O1321       O  0.62768950  0.83811986  0.65218290    -0.78010
O1322       O  0.58945672  0.90348160  0.63473558    -0.78200
C1323       C  0.56400818  0.92438227  0.62696492     1.02420
O1324       O  0.50942008  0.86333120  0.66865464    -0.85520
O1325       O  0.98893666  0.81403367  0.61877118    -0.82580
C1326       C  0.49489973  0.78265547  0.63182175     0.97960
O1327       O  0.52477359  0.77363392  0.64464683    -0.82610
O1328       O  0.59335284  0.77858116  0.66928087    -0.85220
C1329       C  0.59912723  0.79380430  0.69613095     1.02430
O1330       O  0.59112911  0.82698617  0.69894463    -0.78040
O1331       O  0.55782431  0.89177572  0.68673361    -0.78180
C1332       C  0.52951626  0.88050241  0.69054540     1.02390
Cr1333     Cr  0.51674162  0.86089589  0.62562536     1.93740
Cr1334     Cr  0.56230976  0.79346927  0.62805174     1.93210
Cr1335     Cr  0.58912403  0.86358419  0.66578925     1.39100
O1336       O  0.55619595  0.83919385  0.63984484    -1.23270
O1337       O  0.73930610  0.40756834  0.87176520    -0.85520
O1338       O  0.74999982  0.35603860  0.91909815    -0.82570
C1339       C  0.74681645  0.32629292  0.93326542     0.97940
O1340       O  0.73858727  0.29629174  0.91814471    -0.82600
O1341       O  0.67155568  0.30555864  0.89160222    -0.85250
C1342       C  0.64425616  0.31579556  0.87368748     1.02470
O1343       O  0.64481561  0.33666832  0.85057186    -0.78010
O1344       O  0.68494282  0.40180666  0.86673100    -0.78200
C1345       C  0.71109396  0.42187873  0.87217417     1.02420
O1346       O  0.76324973  0.35652085  0.83272877    -0.85520
O1347       O  0.78298521  0.30866413  0.88378686    -0.82580
C1348       C  0.77701713  0.27716993  0.87103155     0.97960
O1349       O  0.74704838  0.26826955  0.85819882    -0.82610
O1350       O  0.67826412  0.27450345  0.83312005    -0.85220
C1351       C  0.67185190  0.29000283  0.80638685     1.02430
O1352       O  0.67995737  0.32311524  0.80347496    -0.78040
O1353       O  0.71548172  0.38626979  0.81453806    -0.78180
C1354       C  0.74351607  0.37406263  0.81082030     1.02390
Cr1355     Cr  0.75610055  0.35574217  0.87587635     1.93740
Cr1356     Cr  0.70942209  0.28950816  0.87426734     1.93210
Cr1357     Cr  0.68369794  0.36029957  0.83633792     1.39100
O1358       O  0.71616637  0.33502195  0.86212359    -1.23270
O1359       O  0.78441181  0.40972734  0.63036944    -0.85520
O1360       O  0.77269812  0.35768762  0.58275248    -0.82570
C1361       C  0.77608161  0.32781927  0.56872635     0.97940
O1362       O  0.78495910  0.29823426  0.58418266    -0.82600
O1363       O  0.85155879  0.30795512  0.61094531    -0.85250
C1364       C  0.87895666  0.31722883  0.62925375     1.02470
O1365       O  0.87857416  0.33780570  0.65259716    -0.78010
O1366       O  0.83894276  0.40333334  0.63633549    -0.78200
C1367       C  0.81307115  0.42376846  0.63114220     1.02420
O1368       O  0.75985207  0.35875368  0.66930870    -0.85520
O1369       O  0.74001483  0.31085036  0.61849763    -0.82580
C1370       C  0.74587024  0.27927981  0.63111052     0.97960
O1371       O  0.77582965  0.27016084  0.64373635    -0.82610
O1372       O  0.84452534  0.27627409  0.66917187    -0.85220
C1373       C  0.85044982  0.29135240  0.69606543     1.02430
O1374       O  0.84238972  0.32444374  0.69910624    -0.78040
O1375       O  0.80769952  0.38812771  0.68797376    -0.78180
C1376       C  0.77956346  0.37596148  0.69146515     1.02390
Cr1377     Cr  0.76709169  0.35785707  0.62621745     1.93740
Cr1378     Cr  0.81367093  0.29151215  0.62801069     1.93210
Cr1379     Cr  0.83950096  0.36180378  0.66644556     1.39100
O1380       O  0.80695090  0.33695758  0.64018656    -1.23270
O1381       O  0.99982391  0.14613124  0.91915286    -0.85520
O1382       O  0.98784151  0.09321262  0.87274443    -0.82570
C1383       C  0.95889695  0.08126230  0.87385264     0.97940
O1384       O  0.93343351  0.10212067  0.86597820    -0.82600
O1385       O  0.89512755  0.16734185  0.84843229    -0.85250
C1386       C  0.89462548  0.18737641  0.87207681     1.02470
O1387       O  0.92201263  0.19662330  0.89045542    -0.78010
O1388       O  0.98923073  0.20602697  0.91741073    -0.78200
C1389       C  0.99722537  0.17632724  0.93293154     1.02420
O1390       O  0.53376924  0.19191114  0.88307422    -0.85520
O1391       O  0.01388782  0.14281981  0.83289042    -0.82580
C1392       C  0.99398814  0.12566034  0.81083110     0.97960
O1393       O  0.96566091  0.11424375  0.81446730    -0.82610
O1394       O  0.93231127  0.17903511  0.80224580    -0.85220
C1395       C  0.92408832  0.21212369  0.80513234     1.02430
O1396       O  0.92955920  0.22720550  0.83202740    -0.78040
O1397       O  0.99806283  0.23258245  0.85744869    -0.78180
C1398       C  0.52790007  0.22353317  0.87043525     1.02390
Cr1399     Cr  0.00611688  0.14498051  0.87587268     1.93740
Cr1400     Cr  0.93402744  0.14221819  0.83516887     1.93210
Cr1401     Cr  0.96024614  0.21224409  0.87339651     1.39100
O1402       O  0.96667103  0.16661761  0.86146415    -1.23270
O1403       O  0.52138077  0.14649184  0.58228490    -0.85520
O1404       O  0.53533108  0.09336631  0.62846642    -0.82570
C1405       C  0.56438927  0.08176510  0.62731898     0.97940
O1406       O  0.58971523  0.10289378  0.63511621    -0.82600
O1407       O  0.62787794  0.16835619  0.65333216    -0.85250
C1408       C  0.62832080  0.18858017  0.62982406     1.02470
O1409       O  0.60092226  0.19721980  0.61128926    -0.78010
O1410       O  0.53422924  0.20588673  0.58381819    -0.78200
C1411       C  0.52463952  0.17640885  0.56833996     1.02420
O1412       O  0.98868006  0.19135136  0.61924881    -0.85520
O1413       O  0.50954021  0.14251288  0.66910325    -0.82580
C1414       C  0.52958822  0.12529364  0.69091393     0.97960
O1415       O  0.55773108  0.11392895  0.68688038    -0.82610
O1416       O  0.59030600  0.17907842  0.69917742    -0.85220
C1417       C  0.59826219  0.21229648  0.69650601     1.02430
O1418       O  0.59259978  0.22773649  0.66973506    -0.78040
O1419       O  0.52421769  0.23314581  0.64335607    -0.78180
C1420       C  0.49435018  0.22336595  0.63108855     1.02390
Cr1421     Cr  0.51657969  0.14492750  0.62592694     1.93740
Cr1422     Cr  0.58894951  0.14261416  0.66616305     1.93210
Cr1423     Cr  0.56244151  0.21257341  0.62801849     1.39100
O1424       O  0.55607528  0.16687114  0.63994156    -1.23270
C1425       C  0.98856594  0.15074770  0.98300224    -0.21480
C1426       C  0.00402330  0.17702258  0.96743306    -0.09520
C1427       C  0.52580753  0.20356529  0.98504803     0.29330
C1428       C  0.53212770  0.20354866  0.51786487    -0.21240
C1429       C  0.51678823  0.17710425  0.53357772    -0.09540
C1430       C  0.99457293  0.15090218  0.51573269     0.29340
F1431       F  0.97808117  0.12589854  0.52982206    -0.20060
H1432       H  0.97139815  0.13037439  0.96970831     0.17710
H1433       H  0.54955178  0.22377193  0.53102965     0.17710
F1434       F  0.54194854  0.22853185  0.97058310    -0.20050
C1435       C  0.53723530  0.11995533  0.77877406    -0.21480
C1436       C  0.00318253  0.11995341  0.78033894    -0.09520
C1437       C  0.97795432  0.11797564  0.75211580     0.29330
C1438       C  0.98669476  0.11841820  0.72309953    -0.21480
C1439       C  0.52071011  0.11962889  0.72152304    -0.09540
C1440       C  0.54599226  0.11921017  0.74974719     0.29340
F1441       F  0.57919489  0.12037842  0.74937551    -0.20060
H1442       H  0.55714652  0.12135801  0.80007364     0.17710
H1443       H  0.96675983  0.11863921  0.70177871     0.17710
F1444       F  0.94471631  0.11781198  0.75240857    -0.20050
C1445       C  0.69124651  0.19890277  0.64738070    -0.21480
C1446       C  0.66003549  0.20707092  0.62659699    -0.09520
C1447       C  0.65840954  0.23750415  0.60607141     0.29330
C1448       C  0.68655283  0.26008750  0.60763659    -0.21480
C1449       C  0.71730091  0.25301877  0.62928167    -0.09540
C1450       C  0.71973798  0.22140710  0.64856486     0.29340
F1451       F  0.74910976  0.21310219  0.66947479    -0.20060
H1452       H  0.69330624  0.17589615  0.66356998     0.17710
H1453       H  0.68397041  0.28373873  0.59204122     0.17710
F1454       F  0.62909439  0.24706927  0.58556612    -0.20050
C1455       C  0.96972545  0.28230832  0.64719939    -0.21480
C1456       C  0.96585116  0.24972103  0.62898094    -0.09520
C1457       C  0.93439648  0.24276044  0.60816440     0.29330
C1458       C  0.90735984  0.26689466  0.60660976    -0.21480
C1459       C  0.91041930  0.29826547  0.62616378    -0.09540
C1460       C  0.94224156  0.30624696  0.64606073     0.29340
F1461       F  0.94657879  0.33640106  0.66511208    -0.20060
H1462       H  0.99378731  0.28869677  0.66308090     0.17710
H1463       H  0.88330338  0.25966742  0.59107682     0.17710
F1464       F  0.92934999  0.21224373  0.58948844    -0.20050
C1465       C  0.87453693  0.23291168  0.72232433    -0.21480
C1466       C  0.86868182  0.27100519  0.72416059    -0.09520
C1467       C  0.88182608  0.28973807  0.75273728     0.29330
C1468       C  0.90019848  0.27052671  0.77877660    -0.21480
C1469       C  0.90603306  0.23243313  0.77695278    -0.09540
C1470       C  0.89291222  0.21369519  0.74837901     0.29340
F1471       F  0.89707244  0.17663166  0.74559691    -0.20060
H1472       H  0.86478949  0.21785583  0.70069440     0.17710
H1473       H  0.90992207  0.28558759  0.80040910     0.17710
F1474       F  0.87763230  0.32679110  0.75556886    -0.20050
C1475       C  0.58222031  0.30334651  0.85340499    -0.21480
C1476       C  0.61218793  0.29810471  0.87678624    -0.09520
C1477       C  0.61271676  0.27023684  0.89948844     0.29330
C1478       C  0.58508587  0.24660866  0.89724802    -0.21480
C1479       C  0.55597425  0.25041428  0.87283611    -0.09540
C1480       C  0.55425981  0.27994846  0.85152963     0.29340
F1481       F  0.52634465  0.28502886  0.82788355    -0.20060
H1482       H  0.58098165  0.32432417  0.83552610     0.17710
H1483       H  0.58672114  0.22481920  0.91452391     0.17710
F1484       F  0.64059753  0.26425519  0.92300020    -0.20050
C1485       C  0.83564341  0.25678669  0.89565222    -0.21480
C1486       C  0.80540378  0.25074108  0.87298523    -0.09520
C1487       C  0.80332785  0.22005610  0.85273320     0.29330
C1488       C  0.83182789  0.19766715  0.85388651    -0.21480
C1489       C  0.86268025  0.20504425  0.87555810    -0.09540
C1490       C  0.86379497  0.23427618  0.89717945     0.29340
F1491       F  0.89266300  0.24279093  0.91877714    -0.20060
H1492       H  0.83783179  0.27963642  0.91206141     0.17710
H1493       H  0.83013018  0.17554078  0.83687961     0.17710
F1494       F  0.77440119  0.21273571  0.83083814    -0.20050
C1495       C  0.65053781  0.23146448  0.77855628    -0.21480
C1496       C  0.65317426  0.27013249  0.77823210    -0.09520
C1497       C  0.63689015  0.28979672  0.75100069     0.29330
C1498       C  0.61878566  0.27089098  0.72461573    -0.21480
C1499       C  0.61627462  0.23221279  0.72489207    -0.09540
C1500       C  0.63242252  0.21256015  0.75217534     0.29340
F1501       F  0.63168953  0.17496848  0.75320709    -0.20060
H1502       H  0.66283032  0.21576320  0.79913315     0.17710
H1503       H  0.60656400  0.28657917  0.70400709     0.17710
F1504       F  0.63769165  0.32738786  0.74994954    -0.20050
C1505       C  0.75072070  0.35647764  0.51656967    -0.21480
C1506       C  0.76856443  0.32704713  0.53398037    -0.09520
C1507       C  0.77901668  0.29717822  0.51779627     0.29330
C1508       C  0.77136267  0.29678781  0.98498621    -0.21480
C1509       C  0.75380587  0.32636259  0.96777415    -0.09540
C1510       C  0.74345052  0.35623184  0.98379963     0.29340
F1511       F  0.72551047  0.38472348  0.96773894    -0.20060
H1512       H  0.74214063  0.37966653  0.52831138     0.17710
H1513       H  0.77983806  0.27373429  0.97299887     0.17710
F1514       F  0.79732363  0.26875004  0.53356514    -0.20050
C1515       C  0.78662788  0.38172694  0.77907871    -0.21480
C1516       C  0.75260159  0.37963676  0.78042257    -0.09520
C1517       C  0.72737571  0.37988377  0.75218312     0.29330
C1518       C  0.73623485  0.37996913  0.72327003    -0.21480
C1519       C  0.77030129  0.38090249  0.72188930    -0.09540
C1520       C  0.79545800  0.38297566  0.75014731     0.29340
F1521       F  0.82870475  0.38410702  0.74993786    -0.20060
H1522       H  0.80645756  0.38174248  0.80047542     0.17710
H1523       H  0.71641303  0.37847018  0.70191082     0.17710
F1524       F  0.69416695  0.37779145  0.75241837    -0.20050
C1525       C  0.53973228  0.02263635  0.60329566    -0.21480
C1526       C  0.56819629  0.04217465  0.61997767    -0.09520
C1527       C  0.59779818  0.02228213  0.63359966     0.29330
C1528       C  0.59745345  0.98338592  0.63333729    -0.21480
C1529       C  0.56766806  0.96397135  0.61955732    -0.09540
C1530       C  0.53940181  0.98398853  0.60298815     0.29340
F1531       F  0.51061378  0.96624382  0.58813539    -0.20060
H1532       H  0.51686030  0.03730446  0.59204377     0.17710
H1533       H  0.61958985  0.96859650  0.64612911     0.17710
F1534       F  0.62592753  0.04012098  0.64978213    -0.20050
C1535       C  0.98302209  0.98276132  0.89684793    -0.21480
C1536       C  0.95443337  0.96335769  0.88022904    -0.09520
C1537       C  0.92484678  0.98339246  0.86684452     0.29330
C1538       C  0.92531789  0.02229433  0.86726999    -0.21480
C1539       C  0.95521173  0.04157871  0.88097771    -0.09540
C1540       C  0.98349368  0.02139604  0.89729296     0.29340
F1541       F  0.01241932  0.03896068  0.91204941    -0.20060
H1542       H  0.00590101  0.96799407  0.90796349     0.17710
H1543       H  0.90314357  0.03721064  0.85468867     0.17710
F1544       F  0.89656624  0.96569596  0.85081190    -0.20050
C1545       C  0.99630997  0.79844663  0.98366632    -0.21480
C1546       C  0.00523305  0.82930102  0.96769584    -0.09520
C1547       C  0.52113925  0.85975391  0.98540333     0.29330
C1548       C  0.52726938  0.85944453  0.51811403    -0.21480
C1549       C  0.51827566  0.82869575  0.53395554    -0.09540
C1550       C  0.00283246  0.79803658  0.51647882     0.29340
F1551       F  0.99299428  0.76824420  0.53101514    -0.20060
H1552       H  0.98387727  0.77472806  0.97074695     0.17710
H1553       H  0.53951930  0.88318649  0.53116652     0.17710
F1554       F  0.53117917  0.88976701  0.97128158    -0.20050
C1555       C  0.98645121  0.88710387  0.72252640    -0.21480
C1556       C  0.52050067  0.88626376  0.72104515    -0.09520
C1557       C  0.54573584  0.88713374  0.74928625     0.29330
C1558       C  0.53693512  0.88618054  0.77826002    -0.21480
C1559       C  0.00287533  0.88566682  0.77972365    -0.09540
C1560       C  0.97765046  0.88747027  0.75149931     0.29340
F1561       F  0.94438624  0.88731664  0.75175388    -0.20060
H1562       H  0.96655685  0.88662436  0.70118167     0.17710
H1563       H  0.55681445  0.88504541  0.79959204     0.17710
F1564       F  0.57896267  0.88667269  0.74898917    -0.20050
C1565       C  0.79292503  0.52338523  0.64345264    -0.21480
C1566       C  0.81572918  0.54310573  0.63019030    -0.09520
C1567       C  0.83954629  0.52327678  0.61799072     0.29330
C1568       C  0.83935320  0.48409710  0.61825717    -0.21480
C1569       C  0.81544259  0.46473022  0.63071419    -0.09540
C1570       C  0.79282425  0.48504787  0.64395981     0.29340
F1571       F  0.77091857  0.46787721  0.65837469    -0.20060
H1572       H  0.77510239  0.53780822  0.65407013     0.17710
H1573       H  0.85731280  0.46900531  0.60833086     0.17710
F1574       F  0.86209013  0.54155413  0.60513817    -0.20050
C1575       C  0.68573232  0.74630892  0.60622097    -0.21480
C1576       C  0.71667303  0.75394908  0.62739685    -0.09520
C1577       C  0.71926447  0.78597660  0.64625436     0.29330
C1578       C  0.69076332  0.80831511  0.64517911    -0.21480
C1579       C  0.65936874  0.79955081  0.62495324    -0.09540
C1580       C  0.65754676  0.76871699  0.60478339     0.29340
F1581       F  0.62802107  0.75856822  0.58484386    -0.20060
H1582       H  0.68302012  0.72231174  0.59095338     0.17710
H1583       H  0.69297391  0.83166445  0.66107741     0.17710
F1584       F  0.74882990  0.79489089  0.66666347    -0.20050
C1585       C  0.93991520  0.70559919  0.65195599    -0.21480
C1586       C  0.91120575  0.70783815  0.62673228    -0.09520
C1587       C  0.91179377  0.73282214  0.60212000     0.29330
C1588       C  0.93921471  0.75670142  0.60402513    -0.21480
C1589       C  0.96697745  0.75585319  0.63002183    -0.09540
C1590       C  0.96764951  0.72918681  0.65355488     0.29340
F1591       F  0.99417254  0.72736983  0.67897693    -0.20060
H1592       H  0.94021068  0.68695640  0.67141366     0.17710
H1593       H  0.93855000  0.77632113  0.58514013     0.17710
F1594       F  0.88520396  0.73558729  0.57682255    -0.20050
C1595       C  0.88958992  0.76559444  0.72022550    -0.21480
C1596       C  0.86680293  0.73747589  0.72325291    -0.09520
C1597       C  0.86428466  0.72648291  0.75342846     0.29330
C1598       C  0.88434844  0.74337097  0.77998604    -0.21480
C1599       C  0.90710481  0.77152953  0.77695902    -0.09540
C1600       C  0.90968589  0.78244374  0.74679011     0.29340
F1601       F  0.93195129  0.80901972  0.74291737    -0.20060
H1602       H  0.89253280  0.77387933  0.69728481     0.17710
H1603       H  0.88141145  0.73506702  0.80292416     0.17710
F1604       F  0.84214882  0.69975004  0.75731882    -0.20050
C1605       C  0.73769036  0.48265736  0.86970213    -0.21480
C1606       C  0.70983316  0.46287957  0.87482460    -0.09520
C1607       C  0.68182523  0.48292711  0.87977126     0.29330
C1608       C  0.68207276  0.52210432  0.87923394    -0.21480
C1609       C  0.71017574  0.54149827  0.87369297    -0.09540
C1610       C  0.73789088  0.52092759  0.86880058     0.29340
F1611       F  0.76501537  0.53747123  0.86149071    -0.20060
H1612       H  0.75945263  0.46847251  0.86507653     0.17710
H1613       H  0.66031117  0.53718256  0.88282827     0.17710
F1614       F  0.65443556  0.46487712  0.88498681    -0.20050
C1615       C  0.61603262  0.74029795  0.89352635    -0.21480
C1616       C  0.61266063  0.70769961  0.87542725    -0.09520
C1617       C  0.58047010  0.69843578  0.85686994     0.29330
C1618       C  0.55279866  0.72215591  0.85574239    -0.21480
C1619       C  0.55686093  0.75579700  0.87258869    -0.09540
C1620       C  0.58884888  0.76419693  0.89192792     0.29340
F1621       F  0.59432057  0.79593912  0.90904853    -0.20060
H1622       H  0.64040595  0.74862332  0.90789261     0.17710
H1623       H  0.52838727  0.71468050  0.84097737     0.17710
F1624       F  0.57588789  0.66708926  0.83924731    -0.20050
C1625       C  0.86314745  0.77277800  0.89673187    -0.21480
C1626       C  0.86174107  0.80087832  0.87426373    -0.09520
C1627       C  0.83079182  0.80713614  0.85228779     0.29330
C1628       C  0.80277243  0.78418384  0.85179522    -0.21480
C1629       C  0.80522598  0.75436832  0.87284592    -0.09540
C1630       C  0.83550681  0.74965508  0.89595993     0.29340
F1631       F  0.83881672  0.72214905  0.91760627    -0.20060
H1632       H  0.88639292  0.76718707  0.91407298     0.17710
H1633       H  0.77960195  0.78878217  0.83408632     0.17710
F1634       F  0.82794768  0.83427576  0.83040319    -0.20050
C1635       C  0.62308453  0.73541682  0.72256939    -0.21480
C1636       C  0.61718970  0.77351514  0.72434419    -0.09520
C1637       C  0.63020413  0.79227227  0.75292993     0.29330
C1638       C  0.64836881  0.77306381  0.77908080    -0.21480
C1639       C  0.65421716  0.73496451  0.77731796    -0.09540
C1640       C  0.64135758  0.71622333  0.74868197     0.29340
F1641       F  0.64582463  0.67919964  0.74583703    -0.20060
H1642       H  0.61352549  0.72035238  0.70091739     0.17710
H1643       H  0.65797891  0.78813765  0.80071921     0.17710
F1644       F  0.62615322  0.82935554  0.75564558    -0.20050
C1645       C  0.75094495  0.70790763  0.51648908    -0.21480
C1646       C  0.76984002  0.67900267  0.53348301    -0.09520
C1647       C  0.78140870  0.65009748  0.51731817     0.29330
C1648       C  0.77401396  0.65014191  0.98455549    -0.21480
C1649       C  0.75484428  0.67890840  0.96736340    -0.09540
C1650       C  0.74317352  0.70778895  0.98370158     0.29340
F1651       F  0.72353363  0.73541146  0.96809750    -0.20060
H1652       H  0.74153461  0.73018077  0.52863920     0.17710
H1653       H  0.78353471  0.62773953  0.97264498     0.17710
F1654       F  0.80063239  0.62236112  0.53323565    -0.20050
C1655       C  0.79423368  0.62419414  0.74811837    -0.21480
C1656       C  0.76860017  0.62653350  0.72031847    -0.09520
C1657       C  0.73466033  0.62691807  0.72232571     0.29330
C1658       C  0.72674153  0.62616006  0.75165962    -0.21480
C1659       C  0.75246666  0.62600447  0.77946131    -0.09540
C1660       C  0.78634319  0.62445156  0.77743868     0.29340
F1661       F  0.81184527  0.62377185  0.80376147    -0.20060
H1662       H  0.82057001  0.62391277  0.74723232     0.17710
H1663       H  0.70046422  0.62747646  0.75264823     0.17710
F1664       F  0.70917000  0.62865460  0.69604007    -0.20050
loop_ 
_geom_bond_atom_site_label_1 
_geom_bond_atom_site_label_2 
_geom_bond_distance 
_geom_bond_site_symmetry_2 
_ccdc_geom_bond_type 
O1          Cr19   1.970       .  S
O1            C9   1.263       .  A
O2          Cr19   1.983       .  S
O2            C3   1.263       .  A
C3            O4   1.264       .  A
C3          C361   1.487       .  S
O4          Cr20   1.998       .  S
O5          Cr20   2.030       .  S
O5            C6   1.268       .  A
C6            O7   1.255       .  A
C6          C368   1.487       .  S
O7          Cr21   1.959       .  S
O8          Cr21   2.014       .  S
O8            C9   1.271       .  A
C9          C401   1.479       .  S
O10         Cr19   2.002       .  S
O10          C18   1.262       .  A
O11         Cr19   1.979       .  S
O11          C12   1.265       .  A
C12          O13   1.270       .  A
C12         C411   1.477       .  S
O13         Cr20   2.012       .  S
O14         Cr20   1.950       .  S
O14          C15   1.254       .  A
C15          O16   1.269       .  A
C15         C391   1.475       .  S
O16         Cr21   2.016       .  S
O17         Cr21   1.989       .  S
O17          C18   1.259       .  A
C18         C381   1.485       .  S
Cr19         O22   1.762       .  S
Cr20         O22   1.779       .  S
Cr21         O22   1.765       .  S
O23         Cr41   1.971       .  S
O23          C31   1.262       .  A
O24         Cr41   1.991       .  S
O24          C25   1.265       .  A
C25          O26   1.262       .  A
C25         C318   1.479       .  S
O26         Cr42   1.996       .  S
O27         Cr42   2.021       .  S
O27          C28   1.268       .  A
C28          O29   1.256       .  A
C28         C338   1.487       .  S
O29         Cr43   1.964       .  S
O30         Cr43   2.018       .  S
O30          C31   1.270       .  A
C31         C398   1.469       .  S
O32         Cr41   2.008       .  S
O32          C40   1.265       .  A
O33         Cr41   1.983       .  S
O33          C34   1.266       .  A
C34          O35   1.269       .  A
C34         C408   1.479       .  S
O35         Cr42   2.010       .  S
O36         Cr42   1.954       .  S
O36          C37   1.255       .  A
C37          O38   1.268       .  A
C37         C348   1.470       .  S
O38         Cr43   2.015       .  S
O39         Cr43   1.984       .  S
O39          C40   1.258       .  A
C40         C328   1.486       .  S
Cr41         O44   1.761       .  S
Cr42         O44   1.772       .  S
Cr43         O44   1.767       .  S
O45         Cr63   2.002       .  S
O45          C53   1.268       .  A
O46         Cr63   1.971       .  S
O46          C47   1.263       .  A
C47          O48   1.271       .  A
C47         C298   1.485       .  S
O48         Cr64   2.017       .  S
O49         Cr64   1.967       .  S
O49          C50   1.257       .  A
C50          O51   1.266       .  A
C50         C378   1.488       .  S
O51         Cr65   2.022       .  S
O52         Cr65   1.984       .  S
O52          C53   1.262       .  A
C53         C288   1.481       .  S
O54         Cr63   1.986       .  S
O54          C62   1.264       .  A
O55        Cr895   2.005       .  S
O55          C56   1.264       .  A
C56         O889   1.259   1_455  A
C56         C371   1.488       .  S
O57         Cr64   1.985       .  S
O57         C888   1.259       .  A
O58         Cr64   2.017       .  S
O58          C59   1.269       .  A
C59          O60   1.256       .  A
C59         C351   1.470       .  S
O60         Cr65   1.955       .  S
O61         Cr65   2.010       .  S
O61          C62   1.267       .  A
C62         C311   1.484       .  S
Cr63        O887   2.005       .  S
Cr63         O66   1.764       .  S
Cr64         O66   1.769       .  S
Cr65         O66   1.774       .  S
O67         Cr85   2.002       .  S
O67          C75   1.266       .  A
O68         Cr85   1.971       .  S
O68          C69   1.262       .  A
C69          O70   1.271       .  A
C69         C301   1.476       .  S
O70         Cr86   2.023       .  S
O71         Cr86   1.961       .  S
O71          C72   1.255       .  A
C72          O73   1.268       .  A
C72         C331   1.488       .  S
O73         Cr87   2.028       .  S
O74         Cr87   1.984       .  S
O74          C75   1.262       .  A
C75         C281   1.480       .  S
O76         Cr85   1.982       .  S
O76          C84   1.265       .  A
O77        Cr917   2.016       .  S
O77         C910   1.266       .  A
C78          O79   1.256   1_655  A
C78         O909   1.266       .  A
C78        C1173   1.480       .  S
O79         Cr86   1.976       .  S
O80         Cr86   2.018       .  S
O80          C81   1.270       .  A
C81          O82   1.254       .  A
C81         C388   1.476       .  S
O82         Cr87   1.952       .  S
O83         Cr87   2.015       .  S
O83          C84   1.270       .  A
C84         C308   1.484       .  S
Cr85        O909   2.016   1_455  S
Cr85         O88   1.764       .  S
Cr86         O88   1.764       .  S
Cr87         O88   1.772       .  S
O89        Cr107   1.985       .  S
O89          C97   1.264       .  A
O90        Cr107   1.970       .  S
O90          C91   1.262       .  A
C91          O92   1.271       .  A
C91         C261   1.472       .  S
O92        Cr108   2.022       .  S
O93        Cr108   1.962       .  S
O93          C94   1.255       .  A
C94          O95   1.268       .  A
C94         C228   1.488       .  S
O95        Cr109   2.023       .  S
O96        Cr109   1.997       .  S
O96          C97   1.262       .  A
C97         C358   1.485       .  S
O98        Cr107   1.982       .  S
O98         C106   1.267       .  A
O99        Cr107   2.007       .  S
O99         C100   1.264       .  A
C100        O101   1.258       .  A
C100        C238   1.486       .  S
O101       Cr108   1.987       .  S
O102       Cr108   2.018       .  S
O102        C103   1.269       .  A
C103        O104   1.253       .  A
C103        C248   1.473       .  S
O104       Cr109   1.948       .  S
O105       Cr109   2.013       .  S
O105        C106   1.270       .  A
C106        C268   1.480       .  S
Cr107       O110   1.760       .  S
Cr108       O110   1.767       .  S
Cr109       O110   1.775       .  S
O111       Cr129   1.992       .  S
O111        C119   1.265       .  A
O112       Cr129   1.973       .  S
O112        C113   1.264       .  A
C113        O114   1.270       .  A
C113        C258   1.482       .  S
O114       Cr130   2.014       .  S
O115       Cr130   1.960       .  S
O115        C116   1.255       .  A
C116        O117   1.268       .  A
C116        C211   1.487       .  S
O117       Cr131   2.028       .  S
O118       Cr131   1.994       .  S
O118        C119   1.262       .  A
C119        C321   1.481       .  S
O120       Cr129   1.981       .  S
O120        C128   1.266       .  A
O121       Cr129   2.006       .  S
O121        C122   1.264       .  A
C122        O123   1.258       .  A
C122        C201   1.487       .  S
O123       Cr130   1.987       .  S
O124       Cr130   2.016       .  S
O124        C125   1.269       .  A
C125        O126   1.254       .  A
C125        C218   1.475       .  S
O126       Cr131   1.950       .  S
O127       Cr131   2.013       .  S
O127        C128   1.269       .  A
C128        C271   1.481       .  S
Cr129       O132   1.763       .  S
Cr130       O132   1.765       .  S
Cr131       O132   1.777       .  S
O133       Cr151   1.976       .  S
O133        C141   1.262       .  A
O134       Cr151   2.002       .  S
O134        C135   1.266       .  A
C135        O136   1.262       .  A
C135        C291   1.480       .  S
O136       Cr152   1.984       .  S
O137       Cr152   2.027       .  S
O137        C138   1.268       .  A
C138        O139   1.256       .  A
C138        C241   1.489       .  S
O139       Cr153   1.963       .  S
O140       Cr153   2.022       .  S
O140        C141   1.270       .  A
C141        C178   1.473       .  S
O142       Cr983   2.015       .  S
O142        C150   1.266       .  A
O143       Cr151   1.986       .  S
O143        C144   1.266       .  A
C144        O145   1.270       .  A
C144        C188   1.486       .  S
O145       Cr152   2.015       .  S
O146       Cr152   1.951       .  S
O146        C147   1.254       .  A
C147        O148   1.270       .  A
C147        C221   1.475       .  S
O148       Cr153   2.018       .  S
O149       Cr153   1.977       .  S
O149        C982   1.257       .  A
C150        O981   1.257   1_455  A
C150        C231   1.483       .  S
Cr151       O974   2.015       .  S
Cr151       O154   1.763       .  S
Cr152       O154   1.772       .  S
Cr153       O154   1.765       .  S
O155       Cr173   1.971       .  S
O155        C163   1.263       .  A
O156       Cr173   2.004       .  S
O156        C157   1.268       .  A
C157        O158   1.262       .  A
C157        C278   1.480       .  S
O158       Cr174   1.982       .  S
O159       Cr174   2.028       .  S
O159        C160   1.267       .  A
C160        O161   1.254       .  A
C160        C198   1.489       .  S
O161       Cr175   1.962       .  S
O162       Cr175   2.019       .  S
O162        C163   1.272       .  A
C163        C181   1.482       .  S
O164      Cr1005   2.007       .  S
O164       C1004   1.264       .  A
O165       Cr173   1.984       .  S
O165        C166   1.264       .  A
C166        O167   1.269       .  A
C166        C191   1.485       .  S
O167       Cr174   2.015       .  S
O168       Cr174   1.947       .  S
O168        C169   1.254       .  A
C169        O170   1.271       .  A
C169        C251   1.473       .  S
O170       Cr175   2.021       .  S
O171       Cr175   1.981       .  S
O171        C172   1.258   1_455  A
C172        O996   1.264       .  A
C172       C1040   1.487       .  S
Cr173       O996   2.007   1_455  S
Cr173       O176   1.766       .  S
Cr174       O176   1.775       .  S
Cr175       O176   1.767       .  S
C177        C178   1.402       .  A
C177        C598   1.398       .  A
C177        H184   1.083       .  S
C178       C1011   1.405       .  A
C179       C1010   1.405       .  A
C179        C596   1.401       .  A
C179        F186   1.358       .  S
C180        C181   1.407       .  A
C180        C595   1.401   1_554  A
C180        H185   1.083       .  S
C181       C1014   1.409   1_455  A
C182        C593   1.398   1_554  A
C182       C1013   1.409       .  A
C182        F183   1.358       .  S
C187        C192   1.402       .  A
C187       C1020   1.405       .  A
C187        H194   1.083       .  S
C188        C189   1.410       .  A
C188       C1019   1.405       .  A
C189        C190   1.401       .  A
C189        F196   1.357       .  S
C190       C1023   1.404       .  A
C190        H195   1.083       .  S
C191        C192   1.410       .  A
C191       C1022   1.404   1_455  A
C192        F193   1.357       .  S
C197        C198   1.408       .  A
C197        C202   1.406       .  A
C197        H204   1.083       .  S
C198        C199   1.412       .  A
C199        C200   1.394       .  A
C199        F206   1.358       .  S
C200        C201   1.404       .  A
C200        H205   1.083       .  S
C201        C202   1.409       .  A
C202        F203   1.357       .  S
C207        C208   1.409       .  A
C207        C212   1.406       .  A
C207        H214   1.083       .  S
C208       C1004   1.487       .  S
C208        C209   1.408       .  A
C209        C210   1.393       .  A
C209        F216   1.358       .  S
C210        C211   1.407       .  A
C210        H215   1.084       .  S
C211        C212   1.409       .  A
C212        F213   1.357       .  S
C217        C218   1.400       .  A
C217        C222   1.394       .  A
C217        H224   1.083       .  S
C218        C219   1.412       .  A
C219        C220   1.393       .  A
C219        F226   1.357       .  S
C220        C221   1.400       .  A
C220        H225   1.083       .  S
C221        C222   1.412       .  A
C222        F223   1.357       .  S
C227        C228   1.408       .  A
C227        C232   1.403       .  A
C227        H234   1.083       .  S
C228        C229   1.412       .  A
C229        C230   1.396       .  A
C229        F236   1.358       .  S
C230        C231   1.403       .  A
C230        H235   1.083       .  S
C231        C232   1.408       .  A
C232        F233   1.357       .  S
C237        C238   1.404       .  A
C237        C242   1.394       .  A
C237        H244   1.084       .  S
C238        C239   1.409       .  A
C239        C240   1.406       .  A
C239        F246   1.357       .  S
C240        C241   1.409       .  A
C240        H245   1.083       .  S
C241        C242   1.411       .  A
C242        F243   1.358       .  S
C247        C248   1.399       .  A
C247        C252   1.393       .  A
C247        H254   1.083       .  S
C248        C249   1.412       .  A
C249        C250   1.393       .  A
C249        F256   1.357       .  S
C250        C251   1.399       .  A
C250        H255   1.083       .  S
C251        C252   1.412       .  A
C252        F253   1.357       .  S
C257        C258   1.406       .  A
C257        C678   1.397   1_554  A
C257        H264   1.083       .  S
C258        C259   1.411       .  A
C259        C676   1.398   1_554  A
C259        F266   1.357       .  S
C260        C261   1.402       .  A
C260        C675   1.398       .  A
C260        H265   1.083       .  S
C261        C262   1.405       .  A
C262        C673   1.397       .  A
C262        F263   1.358       .  S
C267        C268   1.403       .  A
C267        C272   1.400       .  A
C267        H274   1.083       .  S
C268        C269   1.409       .  A
C269        C270   1.399       .  A
C269        F276   1.357       .  S
C270        C271   1.403       .  A
C270        H275   1.083       .  S
C271        C272   1.410       .  A
C272        F273   1.357       .  S
C277        C278   1.404       .  A
C277        C282   1.394   1_545  A
C277        H284   1.083       .  S
C278        C279   1.409       .  A
C279        C280   1.403   1_545  A
C279        F286   1.357       .  S
C280        C281   1.406       .  A
C280        H285   1.083       .  S
C281        C282   1.407       .  A
C282        F283   1.358       .  S
C287        C288   1.404       .  A
C287        C292   1.394   1_565  A
C287        H294   1.084       .  S
C288        C289   1.409       .  A
C289        C290   1.403   1_565  A
C289        F296   1.357       .  S
C290        C291   1.406       .  A
C290        H295   1.083       .  S
C291        C292   1.407       .  A
C292        F293   1.358       .  S
C297        C298   1.408       .  A
C297        C718   1.400       .  A
C297        H304   1.083       .  S
C298       C1131   1.410       .  A
C299       C1130   1.410       .  A
C299        C716   1.397       .  A
C299        F306   1.358       .  S
C300        C301   1.403       .  A
C300        C715   1.397   1_554  A
C300        H305   1.083       .  S
C301       C1134   1.405       .  A
C302        C713   1.400   1_554  A
C302       C1133   1.405       .  A
C302        F303   1.358       .  S
C307        C312   1.400       .  A
C307       C1140   1.404       .  A
C307        H314   1.083       .  S
C308        C309   1.410       .  A
C308       C1139   1.404   1_455  A
C309        C310   1.401       .  A
C309        F316   1.356       .  S
C310       C1143   1.404       .  A
C310        H315   1.083       .  S
C311        C312   1.410       .  A
C311       C1142   1.404       .  A
C312        F313   1.357       .  S
C317        C318   1.401       .  A
C317        C322   1.383       .  A
C317        H324   1.084       .  S
C318        C319   1.409       .  A
C319        C320   1.413       .  A
C319        F326   1.357       .  S
C320        C321   1.409       .  A
C320        H325   1.083       .  S
C321        C322   1.407       .  A
C322        F323   1.359       .  S
C327        C328   1.403       .  A
C327        C332   1.394       .  A
C327        H334   1.084       .  S
C328        C329   1.410       .  A
C329        C330   1.405       .  A
C329        F336   1.357       .  S
C330        C331   1.408       .  A
C330        H335   1.083       .  S
C331        C332   1.412       .  A
C332        F333   1.358       .  S
C337        C338   1.408       .  A
C337        C342   1.402       .  A
C337        H344   1.085       .  S
C338        C339   1.411       .  A
C339        C340   1.396       .  A
C339        F346   1.358       .  S
C340        C341   1.403       .  A
C340        H345   1.085       .  S
C341        C910   1.480       .  S
C341        C342   1.407       .  A
C342        F343   1.357       .  S
C347        C348   1.402       .  A
C347        C352   1.394       .  A
C347        H354   1.083       .  S
C348        C349   1.409       .  A
C349        C350   1.394       .  A
C349        F356   1.358       .  S
C350        C351   1.402       .  A
C350        H355   1.083       .  S
C351        C352   1.409       .  A
C352        F353   1.357       .  S
C357        C358   1.402       .  A
C357        C362   1.381       .  A
C357        H364   1.084       .  S
C358        C359   1.411       .  A
C359        C360   1.413       .  A
C359        F366   1.357       .  S
C360        C361   1.410       .  A
C360        H365   1.083       .  S
C361        C362   1.410       .  A
C362        F363   1.359       .  S
C367        C368   1.407       .  A
C367        C372   1.392       .  A
C367        H374   1.084       .  S
C368        C369   1.409       .  A
C369        C370   1.407       .  A
C369        F376   1.357       .  S
C370        C371   1.410       .  A
C370        H375   1.083       .  S
C371        C372   1.408       .  A
C372        F373   1.358       .  S
C377        C378   1.406       .  A
C377        C382   1.394       .  A
C377        H384   1.083       .  S
C378        C379   1.411       .  A
C379        C380   1.405       .  A
C379        F386   1.357       .  S
C380        C381   1.406       .  A
C380        H385   1.083       .  S
C381        C382   1.409       .  A
C382        F383   1.358       .  S
C387        C388   1.401       .  A
C387        C392   1.393       .  A
C387        H394   1.083       .  S
C388        C389   1.412       .  A
C389        C390   1.393       .  A
C389        F396   1.357       .  S
C390        C391   1.400       .  A
C390        H395   1.083       .  S
C391        C392   1.413       .  A
C392        F393   1.358       .  S
C397        C398   1.402       .  A
C397        C818   1.397   1_554  A
C397        H404   1.083       .  S
C398        C399   1.404       .  A
C399        C816   1.397   1_554  A
C399        F406   1.358       .  S
C400        C401   1.406       .  A
C400        C815   1.397       .  A
C400        H405   1.083       .  S
C401        C402   1.410       .  A
C402        C813   1.397       .  A
C402        F403   1.358       .  S
C407        C408   1.407       .  A
C407        C412   1.398       .  A
C407        H414   1.082       .  S
C408        C409   1.406       .  A
C409        C410   1.399       .  A
C409        F416   1.357       .  S
C410        C411   1.406       .  A
C410        H415   1.082       .  S
C411        C412   1.404       .  A
C412        F413   1.357       .  S
O417       Cr435   1.970       .  S
O417        C425   1.263       .  A
O418       Cr435   1.983       .  S
O418        C419   1.263       .  A
C419        O420   1.264       .  A
C419        C777   1.487       .  S
O420       Cr436   1.998       .  S
O421       Cr436   2.030       .  S
O421        C422   1.268       .  A
C422        O423   1.255       .  A
C422        C784   1.487       .  S
O423       Cr437   1.959       .  S
O424       Cr437   2.014       .  S
O424        C425   1.271       .  A
C425        C817   1.479       .  S
O426       Cr435   2.002       .  S
O426        C434   1.262       .  A
O427       Cr435   1.979       .  S
O427        C428   1.265       .  A
C428        O429   1.270       .  A
C428        C827   1.477       .  S
O429       Cr436   2.012       .  S
O430       Cr436   1.950       .  S
O430        C431   1.254       .  A
C431        O432   1.269       .  A
C431        C807   1.475       .  S
O432       Cr437   2.016       .  S
O433       Cr437   1.989       .  S
O433        C434   1.259       .  A
C434        C797   1.485       .  S
Cr435       O438   1.762       .  S
Cr436       O438   1.779       .  S
Cr437       O438   1.765       .  S
O439       Cr457   1.971       .  S
O439        C447   1.262       .  A
O440       Cr457   1.991       .  S
O440        C441   1.265       .  A
C441        O442   1.262       .  A
C441        C734   1.479       .  S
O442       Cr458   1.996       .  S
O443       Cr458   2.021       .  S
O443        C444   1.268       .  A
C444        O445   1.256       .  A
C444        C754   1.487       .  S
O445       Cr459   1.964       .  S
O446       Cr459   2.018       .  S
O446        C447   1.270       .  A
C447        C814   1.469       .  S
O448       Cr457   2.008       .  S
O448        C456   1.265       .  A
O449       Cr457   1.983       .  S
O449        C450   1.266       .  A
C450        O451   1.269       .  A
C450        C824   1.479       .  S
O451       Cr458   2.010       .  S
O452       Cr458   1.954       .  S
O452        C453   1.255       .  A
C453        O454   1.268       .  A
C453        C764   1.470       .  S
O454       Cr459   2.015       .  S
O455       Cr459   1.984       .  S
O455        C456   1.258       .  A
C456        C744   1.486       .  S
Cr457       O460   1.761       .  S
Cr458       O460   1.772       .  S
Cr459       O460   1.767       .  S
O461       Cr479   2.002       .  S
O461        C469   1.268       .  A
O462       Cr479   1.971       .  S
O462        C463   1.263       .  A
C463        O464   1.271       .  A
C463        C714   1.485       .  S
O464       Cr480   2.017       .  S
O465       Cr480   1.967       .  S
O465        C466   1.257       .  A
C466        O467   1.266       .  A
C466        C794   1.488       .  S
O467       Cr481   2.022       .  S
O468       Cr481   1.984       .  S
O468        C469   1.262       .  A
C469        C704   1.481       .  S
O470       Cr479   1.986       .  S
O470        C478   1.264       .  A
O471      Cr1311   2.005       .  S
O471        C472   1.264       .  A
C472       O1305   1.259   1_455  A
C472        C787   1.488       .  S
O473       Cr480   1.985       .  S
O473       C1304   1.259       .  A
O474       Cr480   2.017       .  S
O474        C475   1.269       .  A
C475        O476   1.256       .  A
C475        C767   1.470       .  S
O476       Cr481   1.955       .  S
O477       Cr481   2.010       .  S
O477        C478   1.267       .  A
C478        C727   1.484       .  S
Cr479      O1303   2.005       .  S
Cr479       O482   1.764       .  S
Cr480       O482   1.769       .  S
Cr481       O482   1.774       .  S
O483       Cr501   2.002       .  S
O483        C491   1.266       .  A
O484       Cr501   1.971       .  S
O484        C485   1.262       .  A
C485        O486   1.271       .  A
C485        C717   1.476       .  S
O486       Cr502   2.023       .  S
O487       Cr502   1.961       .  S
O487        C488   1.255       .  A
C488        O489   1.268       .  A
C488        C747   1.488       .  S
O489       Cr503   2.028       .  S
O490       Cr503   1.984       .  S
O490        C491   1.262       .  A
C491        C697   1.480       .  S
O492       Cr501   1.982       .  S
O492        C500   1.265       .  A
O493      Cr1333   2.016       .  S
O493       C1326   1.266       .  A
C494       O1325   1.266       .  A
C494        O495   1.256   1_655  A
C494       C1589   1.480       .  S
O495       Cr502   1.976       .  S
O496       Cr502   2.018       .  S
O496        C497   1.270       .  A
C497        O498   1.254       .  A
C497        C804   1.476       .  S
O498       Cr503   1.952       .  S
O499       Cr503   2.015       .  S
O499        C500   1.270       .  A
C500        C724   1.484       .  S
Cr501      O1325   2.016   1_455  S
Cr501       O504   1.764       .  S
Cr502       O504   1.764       .  S
Cr503       O504   1.772       .  S
O505       Cr523   1.985       .  S
O505        C513   1.264       .  A
O506       Cr523   1.970       .  S
O506        C507   1.262       .  A
C507        O508   1.271       .  A
C507        C677   1.472       .  S
O508       Cr524   2.022       .  S
O509       Cr524   1.962       .  S
O509        C510   1.255       .  A
C510        O511   1.268       .  A
C510        C644   1.488       .  S
O511       Cr525   2.023       .  S
O512       Cr525   1.997       .  S
O512        C513   1.262       .  A
C513        C774   1.485       .  S
O514       Cr523   1.982       .  S
O514        C522   1.267       .  A
O515       Cr523   2.007       .  S
O515        C516   1.264       .  A
C516        O517   1.258       .  A
C516        C654   1.486       .  S
O517       Cr524   1.987       .  S
O518       Cr524   2.018       .  S
O518        C519   1.269       .  A
C519        O520   1.253       .  A
C519        C664   1.473       .  S
O520       Cr525   1.948       .  S
O521       Cr525   2.013       .  S
O521        C522   1.270       .  A
C522        C684   1.480       .  S
Cr523       O526   1.760       .  S
Cr524       O526   1.767       .  S
Cr525       O526   1.775       .  S
O527       Cr545   1.992       .  S
O527        C535   1.265       .  A
O528       Cr545   1.973       .  S
O528        C529   1.264       .  A
C529        O530   1.270       .  A
C529        C674   1.482       .  S
O530       Cr546   2.014       .  S
O531       Cr546   1.960       .  S
O531        C532   1.255       .  A
C532        O533   1.268       .  A
C532        C627   1.487       .  S
O533       Cr547   2.028       .  S
O534       Cr547   1.994       .  S
O534        C535   1.262       .  A
C535        C737   1.481       .  S
O536       Cr545   1.981       .  S
O536        C544   1.266       .  A
O537       Cr545   2.006       .  S
O537        C538   1.264       .  A
C538        O539   1.258       .  A
C538        C617   1.487       .  S
O539       Cr546   1.987       .  S
O540       Cr546   2.016       .  S
O540        C541   1.269       .  A
C541        O542   1.254       .  A
C541        C634   1.475       .  S
O542       Cr547   1.950       .  S
O543       Cr547   2.013       .  S
O543        C544   1.269       .  A
C544        C687   1.481       .  S
Cr545       O548   1.763       .  S
Cr546       O548   1.765       .  S
Cr547       O548   1.777       .  S
O549       Cr567   1.976       .  S
O549        C557   1.262       .  A
O550       Cr567   2.002       .  S
O550        C551   1.266       .  A
C551        O552   1.262       .  A
C551        C707   1.480       .  S
O552       Cr568   1.984       .  S
O553       Cr568   2.027       .  S
O553        C554   1.268       .  A
C554        O555   1.256       .  A
C554        C657   1.489       .  S
O555       Cr569   1.963       .  S
O556       Cr569   2.022       .  S
O556        C557   1.270       .  A
C557        C594   1.473       .  S
O558      Cr1399   2.015       .  S
O558        C566   1.266       .  A
O559       Cr567   1.986       .  S
O559        C560   1.266       .  A
C560        O561   1.270       .  A
C560        C604   1.486       .  S
O561       Cr568   2.015       .  S
O562       Cr568   1.951       .  S
O562        C563   1.254       .  A
C563        O564   1.270       .  A
C563        C637   1.475       .  S
O564       Cr569   2.018       .  S
O565       Cr569   1.977       .  S
O565       C1398   1.257       .  A
C566       O1397   1.257   1_455  A
C566        C647   1.483       .  S
Cr567      O1390   2.015       .  S
Cr567       O570   1.763       .  S
Cr568       O570   1.772       .  S
Cr569       O570   1.765       .  S
O571       Cr589   1.971       .  S
O571        C579   1.263       .  A
O572       Cr589   2.004       .  S
O572        C573   1.268       .  A
C573        O574   1.262       .  A
C573        C694   1.480       .  S
O574       Cr590   1.982       .  S
O575       Cr590   2.028       .  S
O575        C576   1.267       .  A
C576        O577   1.254       .  A
C576        C614   1.489       .  S
O577       Cr591   1.962       .  S
O578       Cr591   2.019       .  S
O578        C579   1.272       .  A
C579        C597   1.482       .  S
O580      Cr1421   2.007       .  S
O580       C1420   1.264       .  A
O581       Cr589   1.984       .  S
O581        C582   1.264       .  A
C582        O583   1.269       .  A
C582        C607   1.485       .  S
O583       Cr590   2.015       .  S
O584       Cr590   1.947       .  S
O584        C585   1.254       .  A
C585        O586   1.271       .  A
C585        C667   1.473       .  S
O586       Cr591   2.021       .  S
O587       Cr591   1.981       .  S
O587        C588   1.258   1_455  A
C588       O1412   1.264       .  A
C588       C1456   1.487       .  S
Cr589      O1412   2.007   1_455  S
Cr589       O592   1.766       .  S
Cr590       O592   1.775       .  S
Cr591       O592   1.767       .  S
C593        C594   1.402       .  A
C593        H600   1.083       .  S
C594       C1427   1.405       .  A
C595       C1426   1.405       .  A
C595        F602   1.358       .  S
C596        C597   1.407       .  A
C596        H601   1.083       .  S
C597       C1430   1.409   1_455  A
C598       C1429   1.409       .  A
C598        F599   1.358       .  S
C603       C1436   1.405       .  A
C603        C608   1.402       .  A
C603        H610   1.083       .  S
C604       C1435   1.405       .  A
C604        C605   1.410       .  A
C605        C606   1.401       .  A
C605        F612   1.357       .  S
C606       C1439   1.404       .  A
C606        H611   1.083       .  S
C607       C1438   1.404   1_455  A
C607        C608   1.410       .  A
C608        F609   1.357       .  S
C613        C614   1.408       .  A
C613        C618   1.406       .  A
C613        H620   1.083       .  S
C614        C615   1.412       .  A
C615        C616   1.394       .  A
C615        F622   1.358       .  S
C616        C617   1.404       .  A
C616        H621   1.083       .  S
C617        C618   1.409       .  A
C618        F619   1.357       .  S
C623        C624   1.409       .  A
C623        C628   1.406       .  A
C623        H630   1.083       .  S
C624       C1420   1.487       .  S
C624        C625   1.408       .  A
C625        C626   1.393       .  A
C625        F632   1.358       .  S
C626        C627   1.407       .  A
C626        H631   1.084       .  S
C627        C628   1.409       .  A
C628        F629   1.357       .  S
C633        C634   1.400       .  A
C633        C638   1.394       .  A
C633        H640   1.083       .  S
C634        C635   1.412       .  A
C635        C636   1.393       .  A
C635        F642   1.357       .  S
C636        C637   1.400       .  A
C636        H641   1.083       .  S
C637        C638   1.412       .  A
C638        F639   1.357       .  S
C643        C644   1.408       .  A
C643        C648   1.403       .  A
C643        H650   1.083       .  S
C644        C645   1.412       .  A
C645        C646   1.396       .  A
C645        F652   1.358       .  S
C646        C647   1.403       .  A
C646        H651   1.083       .  S
C647        C648   1.408       .  A
C648        F649   1.357       .  S
C653        C654   1.404       .  A
C653        C658   1.394       .  A
C653        H660   1.084       .  S
C654        C655   1.409       .  A
C655        C656   1.406       .  A
C655        F662   1.357       .  S
C656        C657   1.409       .  A
C656        H661   1.083       .  S
C657        C658   1.411       .  A
C658        F659   1.358       .  S
C663        C664   1.399       .  A
C663        C668   1.393       .  A
C663        H670   1.083       .  S
C664        C665   1.412       .  A
C665        C666   1.393       .  A
C665        F672   1.357       .  S
C666        C667   1.399       .  A
C666        H671   1.083       .  S
C667        C668   1.412       .  A
C668        F669   1.357       .  S
C673        C674   1.406       .  A
C673        H680   1.083       .  S
C674        C675   1.411       .  A
C675        F682   1.357       .  S
C676        C677   1.402       .  A
C676        H681   1.083       .  S
C677        C678   1.405       .  A
C678        F679   1.358       .  S
C683        C684   1.403       .  A
C683        C688   1.400       .  A
C683        H690   1.083       .  S
C684        C685   1.409       .  A
C685        C686   1.399       .  A
C685        F692   1.357       .  S
C686        C687   1.403       .  A
C686        H691   1.083       .  S
C687        C688   1.410       .  A
C688        F689   1.357       .  S
C693        C694   1.404       .  A
C693        C698   1.394   1_545  A
C693        H700   1.083       .  S
C694        C695   1.409       .  A
C695        C696   1.403   1_545  A
C695        F702   1.357       .  S
C696        C697   1.406       .  A
C696        H701   1.083       .  S
C697        C698   1.407       .  A
C698        F699   1.358       .  S
C703        C704   1.404       .  A
C703        C708   1.394   1_565  A
C703        H710   1.084       .  S
C704        C705   1.409       .  A
C705        C706   1.403   1_565  A
C705        F712   1.357       .  S
C706        C707   1.406       .  A
C706        H711   1.083       .  S
C707        C708   1.407       .  A
C708        F709   1.358       .  S
C713        C714   1.408       .  A
C713        H720   1.083       .  S
C714       C1547   1.410       .  A
C715       C1546   1.410       .  A
C715        F722   1.358       .  S
C716        C717   1.403       .  A
C716        H721   1.083       .  S
C717       C1550   1.405       .  A
C718       C1549   1.405       .  A
C718        F719   1.358       .  S
C723       C1556   1.404       .  A
C723        C728   1.400       .  A
C723        H730   1.083       .  S
C724       C1555   1.404   1_455  A
C724        C725   1.410       .  A
C725        C726   1.401       .  A
C725        F732   1.356       .  S
C726       C1559   1.404       .  A
C726        H731   1.083       .  S
C727       C1558   1.404       .  A
C727        C728   1.410       .  A
C728        F729   1.357       .  S
C733        C734   1.401       .  A
C733        C738   1.383       .  A
C733        H740   1.084       .  S
C734        C735   1.409       .  A
C735        C736   1.413       .  A
C735        F742   1.357       .  S
C736        C737   1.409       .  A
C736        H741   1.083       .  S
C737        C738   1.407       .  A
C738        F739   1.359       .  S
C743        C744   1.403       .  A
C743        C748   1.394       .  A
C743        H750   1.084       .  S
C744        C745   1.410       .  A
C745        C746   1.405       .  A
C745        F752   1.357       .  S
C746        C747   1.408       .  A
C746        H751   1.083       .  S
C747        C748   1.412       .  A
C748        F749   1.358       .  S
C753        C754   1.408       .  A
C753        C758   1.402       .  A
C753        H760   1.085       .  S
C754        C755   1.411       .  A
C755        C756   1.396       .  A
C755        F762   1.358       .  S
C756        C757   1.403       .  A
C756        H761   1.085       .  S
C757       C1326   1.480       .  S
C757        C758   1.407       .  A
C758        F759   1.357       .  S
C763        C764   1.402       .  A
C763        C768   1.394       .  A
C763        H770   1.083       .  S
C764        C765   1.409       .  A
C765        C766   1.394       .  A
C765        F772   1.358       .  S
C766        C767   1.402       .  A
C766        H771   1.083       .  S
C767        C768   1.409       .  A
C768        F769   1.357       .  S
C773        C774   1.402       .  A
C773        C778   1.381       .  A
C773        H780   1.084       .  S
C774        C775   1.411       .  A
C775        C776   1.413       .  A
C775        F782   1.357       .  S
C776        C777   1.410       .  A
C776        H781   1.083       .  S
C777        C778   1.410       .  A
C778        F779   1.359       .  S
C783        C784   1.407       .  A
C783        C788   1.392       .  A
C783        H790   1.084       .  S
C784        C785   1.409       .  A
C785        C786   1.407       .  A
C785        F792   1.357       .  S
C786        C787   1.410       .  A
C786        H791   1.083       .  S
C787        C788   1.408       .  A
C788        F789   1.358       .  S
C793        C794   1.406       .  A
C793        C798   1.394       .  A
C793        H800   1.083       .  S
C794        C795   1.411       .  A
C795        C796   1.405       .  A
C795        F802   1.357       .  S
C796        C797   1.406       .  A
C796        H801   1.083       .  S
C797        C798   1.409       .  A
C798        F799   1.358       .  S
C803        C804   1.401       .  A
C803        C808   1.393       .  A
C803        H810   1.083       .  S
C804        C805   1.412       .  A
C805        C806   1.393       .  A
C805        F812   1.357       .  S
C806        C807   1.400       .  A
C806        H811   1.083       .  S
C807        C808   1.413       .  A
C808        F809   1.358       .  S
C813        C814   1.402       .  A
C813        H820   1.083       .  S
C814        C815   1.404       .  A
C815        F822   1.358       .  S
C816        C817   1.406       .  A
C816        H821   1.083       .  S
C817        C818   1.410       .  A
C818        F819   1.358       .  S
C823        C824   1.407       .  A
C823        C828   1.398       .  A
C823        H830   1.082       .  S
C824        C825   1.406       .  A
C825        C826   1.399       .  A
C825        F832   1.357       .  S
C826        C827   1.406       .  A
C826        H831   1.082       .  S
C827        C828   1.404       .  A
C828        F829   1.357       .  S
O833       Cr851   1.970       .  S
O833        C841   1.263       .  A
O834       Cr851   1.983       .  S
O834        C835   1.263       .  A
C835        O836   1.264       .  A
C835       C1193   1.487       .  S
O836       Cr852   1.998       .  S
O837       Cr852   2.030       .  S
O837        C838   1.268       .  A
C838        O839   1.255       .  A
C838       C1200   1.487       .  S
O839       Cr853   1.959       .  S
O840       Cr853   2.014       .  S
O840        C841   1.271       .  A
C841       C1233   1.479       .  S
O842       Cr851   2.002       .  S
O842        C850   1.262       .  A
O843       Cr851   1.979       .  S
O843        C844   1.265       .  A
C844        O845   1.270       .  A
C844       C1243   1.477       .  S
O845       Cr852   2.012       .  S
O846       Cr852   1.950       .  S
O846        C847   1.254       .  A
C847        O848   1.269       .  A
C847       C1223   1.475       .  S
O848       Cr853   2.016       .  S
O849       Cr853   1.989       .  S
O849        C850   1.259       .  A
C850       C1213   1.485       .  S
Cr851       O854   1.762       .  S
Cr852       O854   1.779       .  S
Cr853       O854   1.765       .  S
O855       Cr873   1.971       .  S
O855        C863   1.262       .  A
O856       Cr873   1.991       .  S
O856        C857   1.265       .  A
C857        O858   1.262       .  A
C857       C1150   1.479       .  S
O858       Cr874   1.996       .  S
O859       Cr874   2.021       .  S
O859        C860   1.268       .  A
C860        O861   1.256       .  A
C860       C1170   1.487       .  S
O861       Cr875   1.964       .  S
O862       Cr875   2.018       .  S
O862        C863   1.270       .  A
C863       C1230   1.469       .  S
O864       Cr873   2.008       .  S
O864        C872   1.265       .  A
O865       Cr873   1.983       .  S
O865        C866   1.266       .  A
C866        O867   1.269       .  A
C866       C1240   1.479       .  S
O867       Cr874   2.010       .  S
O868       Cr874   1.954       .  S
O868        C869   1.255       .  A
C869        O870   1.268       .  A
C869       C1180   1.470       .  S
O870       Cr875   2.015       .  S
O871       Cr875   1.984       .  S
O871        C872   1.258       .  A
C872       C1160   1.486       .  S
Cr873       O876   1.761       .  S
Cr874       O876   1.772       .  S
Cr875       O876   1.767       .  S
O877       Cr895   2.002   1_655  S
O877        C885   1.268       .  A
O878       Cr895   1.971       .  S
O878        C879   1.263   1_455  A
C879        O880   1.271       .  A
C879       C1130   1.485   1_655  S
O880       Cr896   2.017       .  S
O881       Cr896   1.967       .  S
O881        C882   1.257       .  A
C882        O883   1.266       .  A
C882       C1210   1.488       .  S
O883       Cr897   2.022       .  S
O884       Cr897   1.984       .  S
O884        C885   1.262       .  A
C885       C1120   1.481       .  S
O886       Cr895   1.986       .  S
O886        C894   1.264   1_455  A
O887        C888   1.264       .  A
C888       C1203   1.488       .  S
O889       Cr896   1.985       .  S
O890       Cr896   2.017       .  S
O890        C891   1.269       .  A
C891        O892   1.256       .  A
C891       C1183   1.470       .  S
O892       Cr897   1.955       .  S
O893       Cr897   2.010       .  S
O893        C894   1.267       .  A
C894       C1143   1.484   1_655  S
Cr895       O898   1.764   1_455  S
Cr896       O898   1.769       .  S
Cr897       O898   1.774       .  S
O899       Cr917   2.002       .  S
O899        C907   1.266       .  A
O900       Cr917   1.971       .  S
O900        C901   1.262       .  A
C901        O902   1.271       .  A
C901       C1133   1.476       .  S
O902       Cr918   2.023       .  S
O903       Cr918   1.961       .  S
O903        C904   1.255       .  A
C904        O905   1.268       .  A
C904       C1163   1.488       .  S
O905       Cr919   2.028       .  S
O906       Cr919   1.984       .  S
O906        C907   1.262       .  A
C907       C1113   1.480       .  S
O908       Cr917   1.982       .  S
O908        C916   1.265       .  A
C910        O911   1.256       .  A
O911       Cr918   1.976       .  S
O912       Cr918   2.018       .  S
O912        C913   1.270       .  A
C913        O914   1.254       .  A
C913       C1220   1.476       .  S
O914       Cr919   1.952       .  S
O915       Cr919   2.015       .  S
O915        C916   1.270       .  A
C916       C1140   1.484       .  S
Cr917       O920   1.764       .  S
Cr918       O920   1.764       .  S
Cr919       O920   1.772       .  S
O921       Cr939   1.985       .  S
O921        C929   1.264       .  A
O922       Cr939   1.970       .  S
O922        C923   1.262       .  A
C923        O924   1.271       .  A
C923       C1093   1.472       .  S
O924       Cr940   2.022       .  S
O925       Cr940   1.962       .  S
O925        C926   1.255       .  A
C926        O927   1.268       .  A
C926       C1060   1.488       .  S
O927       Cr941   2.023       .  S
O928       Cr941   1.997       .  S
O928        C929   1.262       .  A
C929       C1190   1.485       .  S
O930       Cr939   1.982       .  S
O930        C938   1.267       .  A
O931       Cr939   2.007       .  S
O931        C932   1.264       .  A
C932        O933   1.258       .  A
C932       C1070   1.486       .  S
O933       Cr940   1.987       .  S
O934       Cr940   2.018       .  S
O934        C935   1.269       .  A
C935        O936   1.253       .  A
C935       C1080   1.473       .  S
O936       Cr941   1.948       .  S
O937       Cr941   2.013       .  S
O937        C938   1.270       .  A
C938       C1100   1.480       .  S
Cr939       O942   1.760       .  S
Cr940       O942   1.767       .  S
Cr941       O942   1.775       .  S
O943       Cr961   1.992       .  S
O943        C951   1.265       .  A
O944       Cr961   1.973       .  S
O944        C945   1.264       .  A
C945        O946   1.270       .  A
C945       C1090   1.482       .  S
O946       Cr962   2.014       .  S
O947       Cr962   1.960       .  S
O947        C948   1.255       .  A
C948        O949   1.268       .  A
C948       C1043   1.487       .  S
O949       Cr963   2.028       .  S
O950       Cr963   1.994       .  S
O950        C951   1.262       .  A
C951       C1153   1.481       .  S
O952       Cr961   1.981       .  S
O952        C960   1.266       .  A
O953       Cr961   2.006       .  S
O953        C954   1.264       .  A
C954        O955   1.258       .  A
C954       C1033   1.487       .  S
O955       Cr962   1.987       .  S
O956       Cr962   2.016       .  S
O956        C957   1.269       .  A
C957        O958   1.254       .  A
C957       C1050   1.475       .  S
O958       Cr963   1.950       .  S
O959       Cr963   2.013       .  S
O959        C960   1.269       .  A
C960       C1103   1.481       .  S
Cr961       O964   1.763       .  S
Cr962       O964   1.765       .  S
Cr963       O964   1.777       .  S
O965       Cr983   1.976   1_655  S
O965        C973   1.262       .  A
O966       Cr983   2.002   1_655  S
O966        C967   1.266       .  A
C967        O968   1.262       .  A
C967       C1123   1.480       .  S
O968       Cr984   1.984       .  S
O969       Cr984   2.027       .  S
O969        C970   1.268       .  A
C970        O971   1.256       .  A
C970       C1073   1.489       .  S
O971       Cr985   1.963       .  S
O972       Cr985   2.022       .  S
O972        C973   1.270       .  A
C973       C1010   1.473   1_655  S
O974        C982   1.266       .  A
O975       Cr983   1.986       .  S
O975        C976   1.266   1_455  A
C976        O977   1.270       .  A
C976       C1020   1.486   1_655  S
O977       Cr984   2.015       .  S
O978       Cr984   1.951       .  S
O978        C979   1.254       .  A
C979        O980   1.270       .  A
C979       C1053   1.475       .  S
O980       Cr985   2.018       .  S
O981       Cr985   1.977       .  S
C982       C1063   1.483       .  S
Cr983       O986   1.763   1_455  S
Cr984       O986   1.772       .  S
Cr985       O986   1.765       .  S
O987      Cr1005   1.971       .  S
O987        C995   1.263       .  A
O988      Cr1005   2.004       .  S
O988        C989   1.268       .  A
C989        O990   1.262       .  A
C989       C1110   1.480       .  S
O990      Cr1006   1.982       .  S
O991      Cr1006   2.028       .  S
O991        C992   1.267       .  A
C992        O993   1.254       .  A
C992       C1030   1.489       .  S
O993      Cr1007   1.962       .  S
O994      Cr1007   2.019       .  S
O994        C995   1.272       .  A
C995       C1013   1.482       .  S
O997      Cr1005   1.984       .  S
O997        C998   1.264       .  A
C998        O999   1.269       .  A
C998       C1023   1.485       .  S
O999      Cr1006   2.015       .  S
O1000     Cr1006   1.947       .  S
O1000      C1001   1.254       .  A
C1001      O1002   1.271       .  A
C1001      C1083   1.473       .  S
O1002     Cr1007   2.021       .  S
O1003     Cr1007   1.981       .  S
O1003      C1004   1.258       .  A
Cr1005     O1008   1.766       .  S
Cr1006     O1008   1.775       .  S
Cr1007     O1008   1.767       .  S
C1009      C1010   1.402   1_655  A
C1009      C1430   1.398       .  A
C1009      H1016   1.083       .  S
C1011      C1428   1.401       .  A
C1011      F1018   1.358       .  S
C1012      C1427   1.401   1_554  A
C1012      C1013   1.407       .  A
C1012      H1017   1.083       .  S
C1014      C1425   1.398   1_554  A
C1014      F1015   1.358       .  S
C1019      C1024   1.402       .  A
C1019      H1026   1.083       .  S
C1020      C1021   1.410   1_455  A
C1021      C1022   1.401       .  A
C1021      F1028   1.357       .  S
C1022      H1027   1.083       .  S
C1023      C1024   1.410       .  A
C1024      F1025   1.357       .  S
C1029      C1030   1.408       .  A
C1029      C1034   1.406       .  A
C1029      H1036   1.083       .  S
C1030      C1031   1.412       .  A
C1031      C1032   1.394       .  A
C1031      F1038   1.358       .  S
C1032      C1033   1.404       .  A
C1032      H1037   1.083       .  S
C1033      C1034   1.409       .  A
C1034      F1035   1.357       .  S
C1039      C1040   1.409       .  A
C1039      C1044   1.406       .  A
C1039      H1046   1.083       .  S
C1040      C1041   1.408       .  A
C1041      C1042   1.393       .  A
C1041      F1048   1.358       .  S
C1042      C1043   1.407       .  A
C1042      H1047   1.084       .  S
C1043      C1044   1.409       .  A
C1044      F1045   1.357       .  S
C1049      C1050   1.400       .  A
C1049      C1054   1.394       .  A
C1049      H1056   1.083       .  S
C1050      C1051   1.412       .  A
C1051      C1052   1.393       .  A
C1051      F1058   1.357       .  S
C1052      C1053   1.400       .  A
C1052      H1057   1.083       .  S
C1053      C1054   1.412       .  A
C1054      F1055   1.357       .  S
C1059      C1060   1.408       .  A
C1059      C1064   1.403       .  A
C1059      H1066   1.083       .  S
C1060      C1061   1.412       .  A
C1061      C1062   1.396       .  A
C1061      F1068   1.358       .  S
C1062      C1063   1.403       .  A
C1062      H1067   1.083       .  S
C1063      C1064   1.408       .  A
C1064      F1065   1.357       .  S
C1069      C1070   1.404       .  A
C1069      C1074   1.394       .  A
C1069      H1076   1.084       .  S
C1070      C1071   1.409       .  A
C1071      C1072   1.406       .  A
C1071      F1078   1.357       .  S
C1072      C1073   1.409       .  A
C1072      H1077   1.083       .  S
C1073      C1074   1.411       .  A
C1074      F1075   1.358       .  S
C1079      C1080   1.399       .  A
C1079      C1084   1.393       .  A
C1079      H1086   1.083       .  S
C1080      C1081   1.412       .  A
C1081      C1082   1.393       .  A
C1081      F1088   1.357       .  S
C1082      C1083   1.399       .  A
C1082      H1087   1.083       .  S
C1083      C1084   1.412       .  A
C1084      F1085   1.357       .  S
C1089      C1090   1.406       .  A
C1089      C1510   1.397   1_554  A
C1089      H1096   1.083       .  S
C1090      C1091   1.411       .  A
C1091      C1508   1.398   1_554  A
C1091      F1098   1.357       .  S
C1092      C1507   1.398       .  A
C1092      C1093   1.402       .  A
C1092      H1097   1.083       .  S
C1093      C1094   1.405       .  A
C1094      C1505   1.397       .  A
C1094      F1095   1.358       .  S
C1099      C1100   1.403       .  A
C1099      C1104   1.400       .  A
C1099      H1106   1.083       .  S
C1100      C1101   1.409       .  A
C1101      C1102   1.399       .  A
C1101      F1108   1.357       .  S
C1102      C1103   1.403       .  A
C1102      H1107   1.083       .  S
C1103      C1104   1.410       .  A
C1104      F1105   1.357       .  S
C1109      C1110   1.404       .  A
C1109      C1114   1.394   1_545  A
C1109      H1116   1.083       .  S
C1110      C1111   1.409       .  A
C1111      C1112   1.403   1_545  A
C1111      F1118   1.357       .  S
C1112      C1113   1.406       .  A
C1112      H1117   1.083       .  S
C1113      C1114   1.407       .  A
C1114      F1115   1.358       .  S
C1119      C1120   1.404       .  A
C1119      C1124   1.394   1_565  A
C1119      H1126   1.084   1_655  S
C1120      C1121   1.409       .  A
C1121      C1122   1.403   1_565  A
C1121      F1128   1.357       .  S
C1122      C1123   1.406       .  A
C1122      H1127   1.083       .  S
C1123      C1124   1.407       .  A
C1124      F1125   1.358   1_655  S
C1129      C1130   1.408   1_655  A
C1129      C1550   1.400   1_655  A
C1129      H1136   1.083       .  S
C1131      C1548   1.397       .  A
C1131      F1138   1.358       .  S
C1132      C1547   1.397   1_554  A
C1132      C1133   1.403       .  A
C1132      H1137   1.083       .  S
C1134      C1545   1.400   1_454  A
C1134      F1135   1.358   1_455  S
C1139      C1144   1.400       .  A
C1139      H1146   1.083       .  S
C1140      C1141   1.410       .  A
C1141      C1142   1.401       .  A
C1141      F1148   1.356       .  S
C1142      H1147   1.083       .  S
C1143      C1144   1.410   1_455  A
C1144      F1145   1.357       .  S
C1149      C1150   1.401       .  A
C1149      C1154   1.383       .  A
C1149      H1156   1.084       .  S
C1150      C1151   1.409       .  A
C1151      C1152   1.413       .  A
C1151      F1158   1.357       .  S
C1152      C1153   1.409       .  A
C1152      H1157   1.083       .  S
C1153      C1154   1.407       .  A
C1154      F1155   1.359       .  S
C1159      C1160   1.403       .  A
C1159      C1164   1.394       .  A
C1159      H1166   1.084       .  S
C1160      C1161   1.410       .  A
C1161      C1162   1.405       .  A
C1161      F1168   1.357       .  S
C1162      C1163   1.408       .  A
C1162      H1167   1.083       .  S
C1163      C1164   1.412       .  A
C1164      F1165   1.358       .  S
C1169      C1170   1.408       .  A
C1169      C1174   1.402       .  A
C1169      H1176   1.085       .  S
C1170      C1171   1.411       .  A
C1171      C1172   1.396       .  A
C1171      F1178   1.358       .  S
C1172      C1173   1.403       .  A
C1172      H1177   1.085       .  S
C1173      C1174   1.407       .  A
C1174      F1175   1.357       .  S
C1179      C1180   1.402       .  A
C1179      C1184   1.394       .  A
C1179      H1186   1.083       .  S
C1180      C1181   1.409       .  A
C1181      C1182   1.394       .  A
C1181      F1188   1.358       .  S
C1182      C1183   1.402       .  A
C1182      H1187   1.083       .  S
C1183      C1184   1.409       .  A
C1184      F1185   1.357       .  S
C1189      C1190   1.402       .  A
C1189      C1194   1.381       .  A
C1189      H1196   1.084       .  S
C1190      C1191   1.411       .  A
C1191      C1192   1.413       .  A
C1191      F1198   1.357       .  S
C1192      C1193   1.410       .  A
C1192      H1197   1.083       .  S
C1193      C1194   1.410       .  A
C1194      F1195   1.359       .  S
C1199      C1200   1.407       .  A
C1199      C1204   1.392       .  A
C1199      H1206   1.084       .  S
C1200      C1201   1.409       .  A
C1201      C1202   1.407       .  A
C1201      F1208   1.357       .  S
C1202      C1203   1.410       .  A
C1202      H1207   1.083       .  S
C1203      C1204   1.408       .  A
C1204      F1205   1.358       .  S
C1209      C1210   1.406       .  A
C1209      C1214   1.394       .  A
C1209      H1216   1.083       .  S
C1210      C1211   1.411       .  A
C1211      C1212   1.405       .  A
C1211      F1218   1.357       .  S
C1212      C1213   1.406       .  A
C1212      H1217   1.083       .  S
C1213      C1214   1.409       .  A
C1214      F1215   1.358       .  S
C1219      C1220   1.401       .  A
C1219      C1224   1.393       .  A
C1219      H1226   1.083       .  S
C1220      C1221   1.412       .  A
C1221      C1222   1.393       .  A
C1221      F1228   1.357       .  S
C1222      C1223   1.400       .  A
C1222      H1227   1.083       .  S
C1223      C1224   1.413       .  A
C1224      F1225   1.358       .  S
C1229      C1230   1.402       .  A
C1229      C1650   1.397   1_554  A
C1229      H1236   1.083       .  S
C1230      C1231   1.404       .  A
C1231      C1648   1.397   1_554  A
C1231      F1238   1.358       .  S
C1232      C1647   1.397       .  A
C1232      C1233   1.406       .  A
C1232      H1237   1.083       .  S
C1233      C1234   1.410       .  A
C1234      C1645   1.397       .  A
C1234      F1235   1.358       .  S
C1239      C1240   1.407       .  A
C1239      C1244   1.398       .  A
C1239      H1246   1.082       .  S
C1240      C1241   1.406       .  A
C1241      C1242   1.399       .  A
C1241      F1248   1.357       .  S
C1242      C1243   1.406       .  A
C1242      H1247   1.082       .  S
C1243      C1244   1.404       .  A
C1244      F1245   1.357       .  S
O1249     Cr1267   1.970       .  S
O1249      C1257   1.263       .  A
O1250     Cr1267   1.983       .  S
O1250      C1251   1.263       .  A
C1251      O1252   1.264       .  A
C1251      C1609   1.487       .  S
O1252     Cr1268   1.998       .  S
O1253     Cr1268   2.030       .  S
O1253      C1254   1.268       .  A
C1254      O1255   1.255       .  A
C1254      C1616   1.487       .  S
O1255     Cr1269   1.959       .  S
O1256     Cr1269   2.014       .  S
O1256      C1257   1.271       .  A
C1257      C1649   1.479       .  S
O1258     Cr1267   2.002       .  S
O1258      C1266   1.262       .  A
O1259     Cr1267   1.979       .  S
O1259      C1260   1.265       .  A
C1260      O1261   1.270       .  A
C1260      C1659   1.477       .  S
O1261     Cr1268   2.012       .  S
O1262     Cr1268   1.950       .  S
O1262      C1263   1.254       .  A
C1263      O1264   1.269       .  A
C1263      C1639   1.475       .  S
O1264     Cr1269   2.016       .  S
O1265     Cr1269   1.989       .  S
O1265      C1266   1.259       .  A
C1266      C1629   1.485       .  S
Cr1267     O1270   1.762       .  S
Cr1268     O1270   1.779       .  S
Cr1269     O1270   1.765       .  S
O1271     Cr1289   1.971       .  S
O1271      C1279   1.262       .  A
O1272     Cr1289   1.991       .  S
O1272      C1273   1.265       .  A
C1273      O1274   1.262       .  A
C1273      C1566   1.479       .  S
O1274     Cr1290   1.996       .  S
O1275     Cr1290   2.021       .  S
O1275      C1276   1.268       .  A
C1276      O1277   1.256       .  A
C1276      C1586   1.487       .  S
O1277     Cr1291   1.964       .  S
O1278     Cr1291   2.018       .  S
O1278      C1279   1.270       .  A
C1279      C1646   1.469       .  S
O1280     Cr1289   2.008       .  S
O1280      C1288   1.265       .  A
O1281     Cr1289   1.983       .  S
O1281      C1282   1.266       .  A
C1282      O1283   1.269       .  A
C1282      C1656   1.479       .  S
O1283     Cr1290   2.010       .  S
O1284     Cr1290   1.954       .  S
O1284      C1285   1.255       .  A
C1285      O1286   1.268       .  A
C1285      C1596   1.470       .  S
O1286     Cr1291   2.015       .  S
O1287     Cr1291   1.984       .  S
O1287      C1288   1.258       .  A
C1288      C1576   1.486       .  S
Cr1289     O1292   1.761       .  S
Cr1290     O1292   1.772       .  S
Cr1291     O1292   1.767       .  S
O1293     Cr1311   2.002   1_655  S
O1293      C1301   1.268       .  A
O1294     Cr1311   1.971       .  S
O1294      C1295   1.263   1_455  A
C1295      O1296   1.271       .  A
C1295      C1546   1.485   1_655  S
O1296     Cr1312   2.017       .  S
O1297     Cr1312   1.967       .  S
O1297      C1298   1.257       .  A
C1298      O1299   1.266       .  A
C1298      C1626   1.488       .  S
O1299     Cr1313   2.022       .  S
O1300     Cr1313   1.984       .  S
O1300      C1301   1.262       .  A
C1301      C1536   1.481       .  S
O1302     Cr1311   1.986       .  S
O1302      C1310   1.264   1_455  A
O1303      C1304   1.264       .  A
C1304      C1619   1.488       .  S
O1305     Cr1312   1.985       .  S
O1306     Cr1312   2.017       .  S
O1306      C1307   1.269       .  A
C1307      O1308   1.256       .  A
C1307      C1599   1.470       .  S
O1308     Cr1313   1.955       .  S
O1309     Cr1313   2.010       .  S
O1309      C1310   1.267       .  A
C1310      C1559   1.484   1_655  S
Cr1311     O1314   1.764   1_455  S
Cr1312     O1314   1.769       .  S
Cr1313     O1314   1.774       .  S
O1315     Cr1333   2.002       .  S
O1315      C1323   1.266       .  A
O1316     Cr1333   1.971       .  S
O1316      C1317   1.262       .  A
C1317      O1318   1.271       .  A
C1317      C1549   1.476       .  S
O1318     Cr1334   2.023       .  S
O1319     Cr1334   1.961       .  S
O1319      C1320   1.255       .  A
C1320      O1321   1.268       .  A
C1320      C1579   1.488       .  S
O1321     Cr1335   2.028       .  S
O1322     Cr1335   1.984       .  S
O1322      C1323   1.262       .  A
C1323      C1529   1.480       .  S
O1324     Cr1333   1.982       .  S
O1324      C1332   1.265       .  A
C1326      O1327   1.256       .  A
O1327     Cr1334   1.976       .  S
O1328     Cr1334   2.018       .  S
O1328      C1329   1.270       .  A
C1329      O1330   1.254       .  A
C1329      C1636   1.476       .  S
O1330     Cr1335   1.952       .  S
O1331     Cr1335   2.015       .  S
O1331      C1332   1.270       .  A
C1332      C1556   1.484       .  S
Cr1333     O1336   1.764       .  S
Cr1334     O1336   1.764       .  S
Cr1335     O1336   1.772       .  S
O1337     Cr1355   1.985       .  S
O1337      C1345   1.264       .  A
O1338     Cr1355   1.970       .  S
O1338      C1339   1.262       .  A
C1339      O1340   1.271       .  A
C1339      C1509   1.472       .  S
O1340     Cr1356   2.022       .  S
O1341     Cr1356   1.962       .  S
O1341      C1342   1.255       .  A
C1342      O1343   1.268       .  A
C1342      C1476   1.488       .  S
O1343     Cr1357   2.023       .  S
O1344     Cr1357   1.997       .  S
O1344      C1345   1.262       .  A
C1345      C1606   1.485       .  S
O1346     Cr1355   1.982       .  S
O1346      C1354   1.267       .  A
O1347     Cr1355   2.007       .  S
O1347      C1348   1.264       .  A
C1348      O1349   1.258       .  A
C1348      C1486   1.486       .  S
O1349     Cr1356   1.987       .  S
O1350     Cr1356   2.018       .  S
O1350      C1351   1.269       .  A
C1351      O1352   1.253       .  A
C1351      C1496   1.473       .  S
O1352     Cr1357   1.948       .  S
O1353     Cr1357   2.013       .  S
O1353      C1354   1.270       .  A
C1354      C1516   1.480       .  S
Cr1355     O1358   1.760       .  S
Cr1356     O1358   1.767       .  S
Cr1357     O1358   1.775       .  S
O1359     Cr1377   1.992       .  S
O1359      C1367   1.265       .  A
O1360     Cr1377   1.973       .  S
O1360      C1361   1.264       .  A
C1361      O1362   1.270       .  A
C1361      C1506   1.482       .  S
O1362     Cr1378   2.014       .  S
O1363     Cr1378   1.960       .  S
O1363      C1364   1.255       .  A
C1364      O1365   1.268       .  A
C1364      C1459   1.487       .  S
O1365     Cr1379   2.028       .  S
O1366     Cr1379   1.994       .  S
O1366      C1367   1.262       .  A
C1367      C1569   1.481       .  S
O1368     Cr1377   1.981       .  S
O1368      C1376   1.266       .  A
O1369     Cr1377   2.006       .  S
O1369      C1370   1.264       .  A
C1370      O1371   1.258       .  A
C1370      C1449   1.487       .  S
O1371     Cr1378   1.987       .  S
O1372     Cr1378   2.016       .  S
O1372      C1373   1.269       .  A
C1373      O1374   1.254       .  A
C1373      C1466   1.475       .  S
O1374     Cr1379   1.950       .  S
O1375     Cr1379   2.013       .  S
O1375      C1376   1.269       .  A
C1376      C1519   1.481       .  S
Cr1377     O1380   1.763       .  S
Cr1378     O1380   1.765       .  S
Cr1379     O1380   1.777       .  S
O1381     Cr1399   1.976   1_655  S
O1381      C1389   1.262       .  A
O1382     Cr1399   2.002   1_655  S
O1382      C1383   1.266       .  A
C1383      O1384   1.262       .  A
C1383      C1539   1.480       .  S
O1384     Cr1400   1.984       .  S
O1385     Cr1400   2.027       .  S
O1385      C1386   1.268       .  A
C1386      O1387   1.256       .  A
C1386      C1489   1.489       .  S
O1387     Cr1401   1.963       .  S
O1388     Cr1401   2.022       .  S
O1388      C1389   1.270       .  A
C1389      C1426   1.473   1_655  S
O1390      C1398   1.266       .  A
O1391     Cr1399   1.986       .  S
O1391      C1392   1.266   1_455  A
C1392      O1393   1.270       .  A
C1392      C1436   1.486   1_655  S
O1393     Cr1400   2.015       .  S
O1394     Cr1400   1.951       .  S
O1394      C1395   1.254       .  A
C1395      O1396   1.270       .  A
C1395      C1469   1.475       .  S
O1396     Cr1401   2.018       .  S
O1397     Cr1401   1.977       .  S
C1398      C1479   1.483       .  S
Cr1399     O1402   1.763   1_455  S
Cr1400     O1402   1.772       .  S
Cr1401     O1402   1.765       .  S
O1403     Cr1421   1.971       .  S
O1403      C1411   1.263       .  A
O1404     Cr1421   2.004       .  S
O1404      C1405   1.268       .  A
C1405      O1406   1.262       .  A
C1405      C1526   1.480       .  S
O1406     Cr1422   1.982       .  S
O1407     Cr1422   2.028       .  S
O1407      C1408   1.267       .  A
C1408      O1409   1.254       .  A
C1408      C1446   1.489       .  S
O1409     Cr1423   1.962       .  S
O1410     Cr1423   2.019       .  S
O1410      C1411   1.272       .  A
C1411      C1429   1.482       .  S
O1413     Cr1421   1.984       .  S
O1413      C1414   1.264       .  A
C1414      O1415   1.269       .  A
C1414      C1439   1.485       .  S
O1415     Cr1422   2.015       .  S
O1416     Cr1422   1.947       .  S
O1416      C1417   1.254       .  A
C1417      O1418   1.271       .  A
C1417      C1499   1.473       .  S
O1418     Cr1423   2.021       .  S
O1419     Cr1423   1.981       .  S
O1419      C1420   1.258       .  A
Cr1421     O1424   1.766       .  S
Cr1422     O1424   1.775       .  S
Cr1423     O1424   1.767       .  S
C1425      C1426   1.402   1_655  A
C1425      H1432   1.083       .  S
C1427      F1434   1.358       .  S
C1428      C1429   1.407       .  A
C1428      H1433   1.083       .  S
C1430      F1431   1.358       .  S
C1435      C1440   1.402       .  A
C1435      H1442   1.083       .  S
C1436      C1437   1.410   1_455  A
C1437      C1438   1.401       .  A
C1437      F1444   1.357       .  S
C1438      H1443   1.083       .  S
C1439      C1440   1.410       .  A
C1440      F1441   1.357       .  S
C1445      C1446   1.408       .  A
C1445      C1450   1.406       .  A
C1445      H1452   1.083       .  S
C1446      C1447   1.412       .  A
C1447      C1448   1.394       .  A
C1447      F1454   1.358       .  S
C1448      C1449   1.404       .  A
C1448      H1453   1.083       .  S
C1449      C1450   1.409       .  A
C1450      F1451   1.357       .  S
C1455      C1456   1.409       .  A
C1455      C1460   1.406       .  A
C1455      H1462   1.083       .  S
C1456      C1457   1.408       .  A
C1457      C1458   1.393       .  A
C1457      F1464   1.358       .  S
C1458      C1459   1.407       .  A
C1458      H1463   1.084       .  S
C1459      C1460   1.409       .  A
C1460      F1461   1.357       .  S
C1465      C1466   1.400       .  A
C1465      C1470   1.394       .  A
C1465      H1472   1.083       .  S
C1466      C1467   1.412       .  A
C1467      C1468   1.393       .  A
C1467      F1474   1.357       .  S
C1468      C1469   1.400       .  A
C1468      H1473   1.083       .  S
C1469      C1470   1.412       .  A
C1470      F1471   1.357       .  S
C1475      C1476   1.408       .  A
C1475      C1480   1.403       .  A
C1475      H1482   1.083       .  S
C1476      C1477   1.412       .  A
C1477      C1478   1.396       .  A
C1477      F1484   1.358       .  S
C1478      C1479   1.403       .  A
C1478      H1483   1.083       .  S
C1479      C1480   1.408       .  A
C1480      F1481   1.357       .  S
C1485      C1486   1.404       .  A
C1485      C1490   1.394       .  A
C1485      H1492   1.084       .  S
C1486      C1487   1.409       .  A
C1487      C1488   1.406       .  A
C1487      F1494   1.357       .  S
C1488      C1489   1.409       .  A
C1488      H1493   1.083       .  S
C1489      C1490   1.411       .  A
C1490      F1491   1.358       .  S
C1495      C1496   1.399       .  A
C1495      C1500   1.393       .  A
C1495      H1502   1.083       .  S
C1496      C1497   1.412       .  A
C1497      C1498   1.393       .  A
C1497      F1504   1.357       .  S
C1498      C1499   1.399       .  A
C1498      H1503   1.083       .  S
C1499      C1500   1.412       .  A
C1500      F1501   1.357       .  S
C1505      C1506   1.406       .  A
C1505      H1512   1.083       .  S
C1506      C1507   1.411       .  A
C1507      F1514   1.357       .  S
C1508      C1509   1.402       .  A
C1508      H1513   1.083       .  S
C1509      C1510   1.405       .  A
C1510      F1511   1.358       .  S
C1515      C1516   1.403       .  A
C1515      C1520   1.400       .  A
C1515      H1522   1.083       .  S
C1516      C1517   1.409       .  A
C1517      C1518   1.399       .  A
C1517      F1524   1.357       .  S
C1518      C1519   1.403       .  A
C1518      H1523   1.083       .  S
C1519      C1520   1.410       .  A
C1520      F1521   1.357       .  S
C1525      C1526   1.404       .  A
C1525      C1530   1.394   1_545  A
C1525      H1532   1.083       .  S
C1526      C1527   1.409       .  A
C1527      C1528   1.403   1_545  A
C1527      F1534   1.357       .  S
C1528      C1529   1.406       .  A
C1528      H1533   1.083       .  S
C1529      C1530   1.407       .  A
C1530      F1531   1.358       .  S
C1535      C1536   1.404       .  A
C1535      C1540   1.394   1_565  A
C1535      H1542   1.084   1_655  S
C1536      C1537   1.409       .  A
C1537      C1538   1.403   1_565  A
C1537      F1544   1.357       .  S
C1538      C1539   1.406       .  A
C1538      H1543   1.083       .  S
C1539      C1540   1.407       .  A
C1540      F1541   1.358   1_655  S
C1545      C1546   1.408   1_655  A
C1545      H1552   1.083       .  S
C1547      F1554   1.358       .  S
C1548      C1549   1.403       .  A
C1548      H1553   1.083       .  S
C1550      F1551   1.358   1_455  S
C1555      C1560   1.400       .  A
C1555      H1562   1.083       .  S
C1556      C1557   1.410       .  A
C1557      C1558   1.401       .  A
C1557      F1564   1.356       .  S
C1558      H1563   1.083       .  S
C1559      C1560   1.410   1_455  A
C1560      F1561   1.357       .  S
C1565      C1566   1.401       .  A
C1565      C1570   1.383       .  A
C1565      H1572   1.084       .  S
C1566      C1567   1.409       .  A
C1567      C1568   1.413       .  A
C1567      F1574   1.357       .  S
C1568      C1569   1.409       .  A
C1568      H1573   1.083       .  S
C1569      C1570   1.407       .  A
C1570      F1571   1.359       .  S
C1575      C1576   1.403       .  A
C1575      C1580   1.394       .  A
C1575      H1582   1.084       .  S
C1576      C1577   1.410       .  A
C1577      C1578   1.405       .  A
C1577      F1584   1.357       .  S
C1578      C1579   1.408       .  A
C1578      H1583   1.083       .  S
C1579      C1580   1.412       .  A
C1580      F1581   1.358       .  S
C1585      C1586   1.408       .  A
C1585      C1590   1.402       .  A
C1585      H1592   1.085       .  S
C1586      C1587   1.411       .  A
C1587      C1588   1.396       .  A
C1587      F1594   1.358       .  S
C1588      C1589   1.403       .  A
C1588      H1593   1.085       .  S
C1589      C1590   1.407       .  A
C1590      F1591   1.357       .  S
C1595      C1596   1.402       .  A
C1595      C1600   1.394       .  A
C1595      H1602   1.083       .  S
C1596      C1597   1.409       .  A
C1597      C1598   1.394       .  A
C1597      F1604   1.358       .  S
C1598      C1599   1.402       .  A
C1598      H1603   1.083       .  S
C1599      C1600   1.409       .  A
C1600      F1601   1.357       .  S
C1605      C1606   1.402       .  A
C1605      C1610   1.381       .  A
C1605      H1612   1.084       .  S
C1606      C1607   1.411       .  A
C1607      C1608   1.413       .  A
C1607      F1614   1.357       .  S
C1608      C1609   1.410       .  A
C1608      H1613   1.083       .  S
C1609      C1610   1.410       .  A
C1610      F1611   1.359       .  S
C1615      C1616   1.407       .  A
C1615      C1620   1.392       .  A
C1615      H1622   1.084       .  S
C1616      C1617   1.409       .  A
C1617      C1618   1.407       .  A
C1617      F1624   1.357       .  S
C1618      C1619   1.410       .  A
C1618      H1623   1.083       .  S
C1619      C1620   1.408       .  A
C1620      F1621   1.358       .  S
C1625      C1626   1.406       .  A
C1625      C1630   1.394       .  A
C1625      H1632   1.083       .  S
C1626      C1627   1.411       .  A
C1627      C1628   1.405       .  A
C1627      F1634   1.357       .  S
C1628      C1629   1.406       .  A
C1628      H1633   1.083       .  S
C1629      C1630   1.409       .  A
C1630      F1631   1.358       .  S
C1635      C1636   1.401       .  A
C1635      C1640   1.393       .  A
C1635      H1642   1.083       .  S
C1636      C1637   1.412       .  A
C1637      C1638   1.393       .  A
C1637      F1644   1.357       .  S
C1638      C1639   1.400       .  A
C1638      H1643   1.083       .  S
C1639      C1640   1.413       .  A
C1640      F1641   1.358       .  S
C1645      C1646   1.402       .  A
C1645      H1652   1.083       .  S
C1646      C1647   1.404       .  A
C1647      F1654   1.358       .  S
C1648      C1649   1.406       .  A
C1648      H1653   1.083       .  S
C1649      C1650   1.410       .  A
C1650      F1651   1.358       .  S
C1655      C1656   1.407       .  A
C1655      C1660   1.398       .  A
C1655      H1662   1.082       .  S
C1656      C1657   1.406       .  A
C1657      C1658   1.399       .  A
C1657      F1664   1.357       .  S
C1658      C1659   1.406       .  A
C1658      H1663   1.082       .  S
C1659      C1660   1.404       .  A
C1660      F1661   1.357       .  S
