geometry optimzed in LAMMPS
_audit_creation_date              2020-12-01 
_audit_creation_method            'lammps2cif' 
_symmetry_space_group_name_H-M    'P1' 
_symmetry_Int_Tables_number       1 
_symmetry_cell_setting            triclinic 
loop_ 
_symmetry_equiv_pos_as_xyz 
  x,y,z 
_cell_length_a                    34.58999257 
_cell_length_b                    66.97742170516081 
_cell_length_c                    34.64289628859585 
_cell_angle_alpha                 89.96864458298991 
_cell_angle_beta                  89.86720388293075 
_cell_angle_gamma                 90.09417034168865 
loop_ 
_atom_site_label 
_atom_site_type_symbol 
_atom_site_fract_x 
_atom_site_fract_y 
_atom_site_fract_z 
_atom_site_charge 
Zn1        Zn  0.18695815  0.88964560  0.52768413     1.49700
Zn2        Zn  0.25206568  0.88652415  0.46306659     1.49400
Zn3        Zn  0.23680363  0.84929239  0.51962249     1.49100
Zn4        Zn  0.17692225  0.86080846  0.45434986     1.49500
O5          O  0.21329755  0.87163989  0.49157967    -1.83300
O6          O  0.20351133  0.91862090  0.51854747    -0.74000
O7          O  0.30380601  0.87473591  0.47295732    -0.73800
O8          O  0.23728243  0.85560337  0.57635037    -0.73300
O9          O  0.25273031  0.91563954  0.47771558    -0.74000
O10         O  0.20171900  0.88284742  0.58350538    -0.73600
O11         O  0.29358811  0.84634816  0.50499825    -0.74200
O12         O  0.16547716  0.83203148  0.46566698    -0.73600
O13         O  0.24449389  0.88461322  0.40568151    -0.74300
O14         O  0.20545666  0.82344340  0.51277799    -0.73700
O15         O  0.19475230  0.86403820  0.39890300    -0.74200
O16         O  0.12522269  0.87340977  0.46118067    -0.74100
O17         O  0.12870703  0.88721379  0.51949145    -0.73900
C18         C  0.23103626  0.92637689  0.49898125     0.77900
C19         C  0.31620781  0.85869066  0.48815683     0.78400
C20         C  0.22261325  0.86899543  0.59788800     0.77400
C21         C  0.17721216  0.81938548  0.49038014     0.77700
C22         C  0.22180929  0.87456037  0.38430663     0.78900
C23         C  0.10901967  0.88126670  0.49048397     0.77900
Zn24       Zn  0.73964347  0.85263925  0.47022564     1.49700
Zn25       Zn  0.67682823  0.88844253  0.47038552     1.49400
Zn26       Zn  0.67990842  0.85693419  0.54063358     1.49100
Zn27       Zn  0.74594916  0.88833486  0.53037936     1.49500
O28         O  0.71037734  0.87153422  0.50247744    -1.83300
O29         O  0.73139551  0.85970251  0.41453802    -0.74000
O30         O  0.62072250  0.88139935  0.48090368    -0.73800
O31         O  0.68000935  0.82798879  0.52759352    -0.73300
O32         O  0.68818157  0.88409562  0.41328468    -0.74000
O33         O  0.71863775  0.82407141  0.47695110    -0.73600
O34         O  0.62330557  0.86324760  0.53484006    -0.74200
O35         O  0.74671604  0.88226238  0.58716648    -0.73600
O36         O  0.68606555  0.91799303  0.48086191    -0.74300
O37         O  0.69962235  0.86035745  0.59592385    -0.73700
O38         O  0.73451928  0.91727224  0.52249703    -0.74200
O39         O  0.79936301  0.88386717  0.51159475    -0.74100
O40         O  0.79841263  0.85569038  0.47816461    -0.73900
C41         C  0.71105210  0.87221618  0.39579965     0.77900
C42         C  0.60419491  0.87144633  0.50770133     0.78400
C43         C  0.69410245  0.81706416  0.50107688     0.77400
C44         C  0.72729931  0.87086648  0.60936105     0.77700
C45         C  0.71075856  0.92703673  0.50183285     0.78900
C46         C  0.81704126  0.87028627  0.49303528     0.77900
Zn47       Zn  0.31389180  0.14472178  0.54895575     1.49700
Zn48       Zn  0.31353803  0.11503995  0.47611252     1.49400
Zn49       Zn  0.24626370  0.11431169  0.53776926     1.49100
Zn50       Zn  0.25287616  0.15171253  0.48120114     1.49500
O51         O  0.28181402  0.13151846  0.51054234    -1.83300
O52         O  0.36947118  0.13721928  0.54195371    -0.74000
O53         O  0.30368738  0.08522489  0.48432839    -0.73800
O54         O  0.24637617  0.11939245  0.59472694    -0.73300
O55         O  0.37004984  0.12085544  0.48604651    -0.74000
O56         O  0.29537671  0.14015039  0.60382255    -0.73600
O57         O  0.25732515  0.08536587  0.52850441    -0.74200
O58         O  0.19456443  0.14869374  0.48954455    -0.73600
O59         O  0.30151590  0.12160557  0.42022712    -0.74300
O60         O  0.19282107  0.11957902  0.52019550    -0.73700
O61         O  0.26119044  0.14731967  0.42442501    -0.74200
O62         O  0.27283219  0.17977058  0.49228107    -0.74100
O63         O  0.31452211  0.17410573  0.53965800    -0.73900
C64         C  0.38772859  0.12930539  0.51389711     0.77900
C65         C  0.28016135  0.07587537  0.50628613     0.78400
C66         C  0.26709344  0.12998945  0.61701965     0.77400
C67         C  0.17568908  0.13388008  0.50325052     0.77700
C68         C  0.28049207  0.13491048  0.40436909     0.78900
C69         C  0.29818247  0.18595694  0.51617710     0.77900
Zn70       Zn  0.73936746  0.11632778  0.46214248     1.49700
Zn71       Zn  0.75704762  0.15134091  0.52175866     1.49400
Zn72       Zn  0.80625698  0.11073244  0.52438366     1.49100
Zn73       Zn  0.81553940  0.14099569  0.45373695     1.49500
O74         O  0.77953854  0.12978298  0.49087522    -1.83300
O75         O  0.68796261  0.12675122  0.47729317    -0.74000
O76         O  0.75958962  0.14398712  0.57752625    -0.73800
O77         O  0.78707845  0.08247872  0.51410185    -0.73300
O78         O  0.69943946  0.15412330  0.51192323    -0.74000
O79         O  0.73969658  0.08693712  0.47163934    -0.73600
O80         O  0.79375220  0.11614573  0.58066962    -0.74200
O81         O  0.86835677  0.12946190  0.46034436    -0.73600
O82         O  0.78701172  0.17736244  0.51489507    -0.74300
O83         O  0.86450146  0.11294305  0.51575433    -0.73700
O84         O  0.82468905  0.16966445  0.46541235    -0.74200
O85         O  0.79736858  0.13858134  0.39852344    -0.74100
O86         O  0.74363127  0.12095586  0.40539439    -0.73900
C87         C  0.67616465  0.14197189  0.49569179     0.77900
C88         C  0.77411550  0.12982904  0.59709784     0.78400
C89         C  0.75998692  0.07561590  0.49293444     0.77400
C90         C  0.88456570  0.12043981  0.48832634     0.77700
C91         C  0.81376286  0.18197582  0.49103749     0.78900
C92         C  0.76762379  0.13024287  0.38409966     0.77900
Zn93       Zn  0.31978528  0.85921072  0.95644338     1.49700
Zn94       Zn  0.24951548  0.88767761  0.96421842     1.49400
Zn95       Zn  0.25865066  0.85200647  0.02393010     1.49100
Zn96       Zn  0.31684699  0.88997623  0.02668278     1.49500
O97         O  0.28636253  0.87225561  0.99335723    -1.83300
O98         O  0.30194903  0.86199855  0.90098252    -0.74000
O99         O  0.19689744  0.88231202  0.98440879    -0.73800
O100        O  0.28289272  0.82414555  0.01737504    -0.73300
O101        O  0.24997078  0.88096569  0.90766907    -0.74000
O102        O  0.32324813  0.83033807  0.96913446    -0.73600
O103        O  0.20049482  0.85291626  0.01411730    -0.74200
O104        O  0.30359993  0.88500543  0.08294524    -0.73600
O105        O  0.25813209  0.91695993  0.97046454    -0.74300
O106        O  0.26204925  0.85964087  0.07983975    -0.73700
O107        O  0.30291550  0.91908351  0.01627782    -0.74200
O108        O  0.37450002  0.88512508  0.01795507    -0.74100
O109        O  0.37444017  0.86819884  0.96282965    -0.73900
C110        C  0.27270058  0.87078636  0.88653642     0.77900
C111        C  0.18099976  0.86784873  0.00212636     0.78400
C112        C  0.30918465  0.81835520  0.99395912     0.77400
C113        C  0.28026229  0.87281739  0.09905010     0.77700
C114        C  0.27903029  0.92725325  0.99311566     0.78900
C115        C  0.39260495  0.87654545  0.99041051     0.77900
Zn116      Zn  0.75225097  0.88643826  0.97209273     1.49700
Zn117      Zn  0.75855158  0.84961433  0.03081641     1.49400
Zn118      Zn  0.82499676  0.85942802  0.96919061     1.49100
Zn119      Zn  0.81194480  0.88865727  0.04142551     1.49500
O120        O  0.78686443  0.87097995  0.00383699    -1.83300
O121        O  0.69837099  0.87761345  0.98099725    -0.74000
O122        O  0.78695552  0.82270859  0.02497340    -0.73800
O123        O  0.81264583  0.86278653  0.91189693    -0.73300
O124        O  0.70212221  0.84886559  0.01308285    -0.74000
O125        O  0.76176518  0.88259402  0.91569536    -0.73600
O126        O  0.83117706  0.83046495  0.98106300    -0.74200
O127        O  0.87040499  0.88538962  0.03808934    -0.73600
O128        O  0.75495605  0.85625719  0.08766774    -0.74300
O129        O  0.87711594  0.87060283  0.98095327    -0.73700
O130        O  0.79233829  0.88286638  0.09565822    -0.74200
O131        O  0.79857399  0.91772054  0.03081863    -0.74100
O132        O  0.75610142  0.91567264  0.98300913    -0.73900
C133        C  0.68248940  0.86221023  0.99549609     0.77900
C134        C  0.81595885  0.81785549  0.00403019     0.78400
C135        C  0.78605838  0.87288839  0.89561456     0.77400
C136        C  0.89168203  0.87874116  0.01080537     0.77700
C137        C  0.76898129  0.86985400  0.10922567     0.78900
C138        C  0.77549127  0.92595443  0.00700633     0.77900
Zn139      Zn  0.18475525  0.11196313  0.97640977     1.49700
Zn140      Zn  0.23930975  0.15075663  0.97985018     1.49400
Zn141      Zn  0.17908965  0.14132709  0.04840910     1.49100
Zn142      Zn  0.25186129  0.11488847  0.03928558     1.49500
O143        O  0.21381790  0.12976371  0.01051859    -1.83300
O144        O  0.19633993  0.11821930  0.92027354    -0.74000
O145        O  0.21802435  0.17820947  0.99297903    -0.73800
O146        O  0.12445484  0.13207104  0.04108313    -0.73300
O147        O  0.23009782  0.14638881  0.92330892    -0.74000
O148        O  0.12722645  0.11550095  0.98567428    -0.73600
O149        O  0.17596964  0.17029099  0.03880897    -0.74200
O150        O  0.25004911  0.12036363  0.09637366    -0.73600
O151        O  0.29767970  0.14904914  0.98465193    -0.74300
O152        O  0.19673878  0.13811247  0.10363558    -0.73700
O153        O  0.30469637  0.12212577  0.02161756    -0.74200
O154        O  0.24577267  0.08573115  0.02960469    -0.74100
O155        O  0.20010563  0.08306481  0.98505565    -0.73900
C156        C  0.21412462  0.13258359  0.90381277     0.77900
C157        C  0.19147222  0.18315632  0.01669730     0.78400
C158        C  0.10772662  0.12341283  0.01300228     0.77400
C159        C  0.22651041  0.12980797  0.11792405     0.77700
C160        C  0.31889821  0.13597810  0.00090027     0.78900
C161        C  0.22555555  0.07514976  0.00679796     0.77900
Zn162      Zn  0.74731431  0.11505005  0.02240654     1.49700
Zn163      Zn  0.74085678  0.14969225  0.96042988     1.49400
Zn164      Zn  0.68479211  0.11020914  0.95669182     1.49100
Zn165      Zn  0.67543129  0.14311947  0.02386298     1.49500
O166        O  0.71184641  0.12955242  0.99022352    -1.83300
O167        O  0.80123032  0.12188746  0.00939036    -0.74000
O168        O  0.73790457  0.14162933  0.90481502    -0.73800
O169        O  0.69807034  0.08132844  0.97111034    -0.73300
O170        O  0.79882417  0.14937332  0.97347681    -0.74000
O171        O  0.74282504  0.08566082  0.01599610    -0.73600
O172        O  0.70138988  0.11446025  0.90091033    -0.74200
O173        O  0.62152404  0.13507197  0.01053975    -0.73600
O174        O  0.71726040  0.17781389  0.96548085    -0.74300
O175        O  0.62655289  0.11457449  0.96013181    -0.73700
O176        O  0.67502660  0.17218093  0.01237449    -0.74200
O177        O  0.68698078  0.13980062  0.08104687    -0.74100
O178        O  0.73981562  0.12130305  0.07787664    -0.73900
C179        C  0.81793016  0.13587252  0.99109865     0.77900
C180        C  0.72253546  0.12775698  0.88493354     0.78400
C181        C  0.72261134  0.07421312  0.99488980     0.77400
C182        C  0.60626389  0.12503090  0.98334134     0.77700
C183        C  0.69081400  0.18399228  0.98830548     0.78900
C184        C  0.71505995  0.13096032  0.09751173     0.77900
Zn185      Zn  0.50213165  0.38634073  0.46123446     1.49700
Zn186      Zn  0.48774341  0.35076471  0.52110013     1.49400
Zn187      Zn  0.43354910  0.38983885  0.52133019     1.49100
Zn188      Zn  0.42979851  0.35963612  0.45106775     1.49500
O189        O  0.46348252  0.37157560  0.48918878    -1.83300
O190        O  0.55370541  0.37802437  0.47885449    -0.74000
O191        O  0.48115989  0.35780994  0.57738128    -0.73800
O192        O  0.44735880  0.41867609  0.50988774    -0.73300
O193        O  0.54647061  0.34997810  0.51215067    -0.74000
O194        O  0.49728151  0.41567828  0.46997406    -0.73600
O195        O  0.44478982  0.38514720  0.57786515    -0.74200
O196        O  0.37670383  0.37122066  0.45370792    -0.73600
O197        O  0.46004886  0.32396976  0.51371499    -0.74300
O198        O  0.37659569  0.38563369  0.51154972    -0.73700
O199        O  0.42073651  0.33128652  0.46516684    -0.74200
O200        O  0.45020809  0.36133620  0.39649817    -0.74100
O201        O  0.50095582  0.38108424  0.40423636    -0.73900
C202        C  0.56816496  0.36330867  0.49689878     0.77900
C203        C  0.46417593  0.37182868  0.59553855     0.78400
C204        C  0.47420694  0.42644886  0.48955878     0.77400
C205        C  0.35876231  0.37899710  0.48203161     0.77700
C206        C  0.43253962  0.31924424  0.49089675     0.78900
C207        C  0.47904092  0.37075200  0.38259482     0.77900
Zn208      Zn  0.93309884  0.35605852  0.54705036     1.49700
Zn209      Zn  0.00237015  0.38535410  0.53541562     1.49400
Zn210      Zn  0.99261921  0.34928748  0.47805900     1.47500
Zn211      Zn  0.93378050  0.38629437  0.47475513     1.49500
O212        O  0.96510353  0.36926941  0.50847892    -1.83300
O213        O  0.95061935  0.36133674  0.60163363    -0.74000
O214        O  0.05485617  0.38014474  0.51515968    -0.73800
O215        O  0.97148345  0.32170464  0.48794996    -0.73300
O216        O  0.00235726  0.38022976  0.59232272    -0.74000
O217        O  0.93303748  0.32654142  0.53866999    -0.73600
O218        O  0.05078954  0.35117969  0.48422528    -0.74200
O219        O  0.94542420  0.38059699  0.41814590    -0.73600
O220        O  0.99309076  0.41419622  0.52702262    -0.74300
O221        O  0.98447921  0.35454905  0.42218304    -0.73700
O222        O  0.94539612  0.41578364  0.48444436    -0.74200
O223        O  0.87709840  0.38050974  0.48476850    -0.74100
O224        O  0.87751627  0.36339378  0.53984058    -0.73900
C225        C  0.97970925  0.37076583  0.61482734     0.77900
C226        C  0.07044578  0.36597658  0.49647386     0.78400
C227        C  0.94770499  0.31522203  0.51313564     0.77400
C228        C  0.96622724  0.36727642  0.40204364     0.77700
C229        C  0.97045176  0.42431023  0.50586412     0.78900
C230        C  0.85931565  0.37169693  0.51228668     0.77900
Zn231      Zn  0.06500289  0.64135987  0.53677664     1.49700
Zn232      Zn  0.99464319  0.61242328  0.53217136     1.49400
Zn233      Zn  0.00075782  0.64959264  0.47420822     1.49100
Zn234      Zn  0.05609405  0.61092923  0.46460971     1.49500
O235        O  0.02932145  0.62855318  0.50144023    -1.83300
O236        O  0.05327115  0.63599282  0.59302639    -0.74000
O237        O  0.94073991  0.61955933  0.52052736    -0.73800
O238        O  0.02220692  0.67760106  0.48471663    -0.73300
O239        O  0.00219126  0.61612164  0.58874866    -0.74000
O240        O  0.06582049  0.67097416  0.52958346    -0.73600
O241        O  0.94361977  0.64741246  0.48554255    -0.74200
O242        O  0.03867538  0.61754880  0.41000017    -0.73600
O243        O  0.99987317  0.58346484  0.52111858    -0.74300
O244        O  0.00348309  0.64489147  0.41740914    -0.73700
O245        O  0.04314671  0.58133902  0.47408966    -0.74200
O246        O  0.11426025  0.61560730  0.46907739    -0.74100
O247        O  0.11845426  0.63337860  0.52329641    -0.73900
C248        C  0.02660239  0.62571618  0.60884999     0.77900
C249        C  0.92441449  0.63372204  0.50252764     0.78400
C250        C  0.04863732  0.68337587  0.50784543     0.77400
C251        C  0.01798661  0.63148591  0.39581954     0.77700
C252        C  0.01950017  0.57306486  0.49754629     0.78900
C253        C  0.13417404  0.62479906  0.49454221     0.77900
Zn254      Zn  0.56274432  0.64313922  0.53424692     1.49700
Zn255      Zn  0.50199552  0.65148992  0.46826569     1.49400
Zn256      Zn  0.55988100  0.61360185  0.46174480     1.49100
Zn257      Zn  0.49376767  0.61413003  0.52535960     1.49500
O258        O  0.52953071  0.63055504  0.49677546    -1.83300
O259        O  0.56873756  0.67201095  0.52200639    -0.74000
O260        O  0.50757057  0.64598641  0.41185327    -0.73800
O261        O  0.61698088  0.61761325  0.47192788    -0.73300
O262        O  0.52620049  0.67928726  0.47638149    -0.74000
O263        O  0.61597149  0.63306894  0.52855461    -0.73600
O264        O  0.54849796  0.62065041  0.40597803    -0.74200
O265        O  0.50050179  0.58528162  0.51371415    -0.73600
O266        O  0.44388652  0.64979553  0.47848036    -0.74300
O267        O  0.54655073  0.58416968  0.46918208    -0.73700
O268        O  0.44024978  0.62131833  0.51127811    -0.74200
O269        O  0.49873109  0.61745254  0.58250038    -0.74100
O270        O  0.54620142  0.63928188  0.58961372    -0.73900
C271        C  0.55428783  0.68435275  0.49817288     0.77900
C272        C  0.52644495  0.63375688  0.39099239     0.78400
C273        C  0.63446850  0.62517252  0.50083634     0.77400
C274        C  0.52196394  0.57540644  0.49087211     0.77700
C275        C  0.42406415  0.63576913  0.49389797     0.78900
C276        C  0.52039160  0.62795989  0.60406306     0.77900
Zn277      Zn  0.99776497  0.34658785  0.03454567     1.49700
Zn278      Zn  0.06371415  0.35506122  0.97263117     1.49400
Zn279      Zn  0.99515978  0.38448923  0.97937123     1.49100
Zn280      Zn  0.05676840  0.38347323  0.04694127     1.49500
O281        O  0.02836074  0.36741807  0.00897148    -1.83300
O282        O  0.02388283  0.31969642  0.02729572    -0.74000
O283        O  0.05325022  0.36148450  0.91694307    -0.73800
O284        O  0.94104567  0.37601774  0.98536373    -0.73300
O285        O  0.06427335  0.32563948  0.97854179    -0.74000
O286        O  0.94150372  0.34702747  0.01668981    -0.73600
O287        O  0.00539179  0.38305780  0.92265704    -0.74200
O288        O  0.04476664  0.41333963  0.04071207    -0.73600
O289        O  0.11763193  0.36219150  0.98613739    -0.74300
O290        O  0.99901456  0.41275589  0.99604476    -0.73700
O291        O  0.11476100  0.37813495  0.04212206    -0.74200
O292        O  0.03906720  0.37595325  0.10075842    -0.74100
O293        O  0.99644265  0.35162466  0.09160911    -0.73900
C294        C  0.04993224  0.31397907  0.00365155     0.77900
C295        C  0.02855534  0.37310475  0.90172550     0.78400
C296        C  0.92360515  0.36079839  0.99858553     0.77400
C297        C  0.01975398  0.42234113  0.01996867     0.77700
C298        C  0.13429661  0.36968792  0.01538278     0.78900
C299        C  0.01435484  0.36352142  0.11393547     0.77900
Zn300      Zn  0.50513240  0.34956605  0.02031636     1.49700
Zn301      Zn  0.56247950  0.35907775  0.95074320     1.49400
Zn302      Zn  0.49110776  0.38700405  0.96460491     1.49100
Zn303      Zn  0.56179949  0.38777480  0.02371099     1.49500
O304        O  0.52999826  0.37087991  0.99019752    -1.83300
O305        O  0.52844563  0.32216012  0.00810679    -0.74000
O306        O  0.54124023  0.36312807  0.89727741    -0.73800
O307        O  0.43884655  0.37971034  0.98483219    -0.73300
O308        O  0.56915515  0.32987676  0.96051560    -0.74000
O309        O  0.44654182  0.35093667  0.01562309    -0.73600
O310        O  0.49092054  0.38290393  0.90648916    -0.74200
O311        O  0.54823080  0.41697395  0.01716054    -0.73600
O312        O  0.61669909  0.36926235  0.95398640    -0.74300
O313        O  0.49868979  0.41608657  0.97652598    -0.73700
O314        O  0.61852077  0.38389476  0.01144736    -0.74200
O315        O  0.55235895  0.38102516  0.07990460    -0.74100
O316        O  0.51441999  0.35433653  0.07677180    -0.73900
C317        C  0.55501539  0.31736063  0.98423196     0.77900
C318        C  0.51265495  0.37286120  0.88394448     0.78400
C319        C  0.42482659  0.36498307  0.00346217     0.77400
C320        C  0.52191893  0.42579984  0.99797322     0.77700
C321        C  0.63564539  0.37693629  0.98174256     0.78900
C322        C  0.53282795  0.36727979  0.09636506     0.77900
Zn323      Zn  0.43022172  0.64136863  0.96184778     1.49700
Zn324      Zn  0.43753511  0.61287938  0.03634562     1.49400
Zn325      Zn  0.50000851  0.61312002  0.97039987     1.49100
Zn326      Zn  0.49454926  0.65102100  0.02521172     1.49500
O327        O  0.46530919  0.62973100  0.99904114    -1.83300
O328        O  0.37650980  0.63216941  0.97252544    -0.74000
O329        O  0.45119296  0.58341465  0.03023650    -0.73800
O330        O  0.49568618  0.61634725  0.91348084    -0.73300
O331        O  0.37996683  0.61630812  0.02892126    -0.74000
O332        O  0.44494469  0.63596876  0.90590600    -0.73600
O333        O  0.49347746  0.58450717  0.98241521    -0.74200
O334        O  0.55291867  0.64856427  0.01524246    -0.73600
O335        O  0.45172795  0.62083129  0.09091834    -0.74300
O336        O  0.55307161  0.61943144  0.98509524    -0.73700
O337        O  0.49035373  0.64687501  0.08224728    -0.74200
O338        O  0.47061488  0.67857018  0.01464547    -0.74100
O339        O  0.42639365  0.67067065  0.97099125    -0.73900
C340        C  0.36035380  0.62389581  0.00146762     0.77900
C341        C  0.47432699  0.57461203  0.00718402     0.78400
C342        C  0.47232085  0.62556529  0.89165885     0.77400
C343        C  0.57108922  0.63354148  0.00155840     0.77700
C344        C  0.47333879  0.63457470  0.10450911     0.78900
C345        C  0.44218604  0.68344514  0.99311149     0.77900
Zn346      Zn  0.99384268  0.64824576  0.03059831     1.49700
Zn347      Zn  0.00040364  0.61025391  0.97448405     1.49400
Zn348      Zn  0.93615343  0.61056362  0.03925813     1.49100
Zn349      Zn  0.93149293  0.63978917  0.96602132     1.49500
O350        O  0.96546722  0.62721791  0.00310490    -1.83300
O351        O  0.05157889  0.64619129  0.01990792    -0.74000
O352        O  0.99363555  0.58122376  0.98695198    -0.73800
O353        O  0.94595483  0.61939463  0.09436668    -0.73300
O354        O  0.05400700  0.61741717  0.98796258    -0.74000
O355        O  0.98752309  0.64434415  0.08755731    -0.73600
O356        O  0.95095393  0.58120728  0.03470191    -0.74200
O357        O  0.87795894  0.62933985  0.97223437    -0.73600
O358        O  0.99659770  0.61433688  0.91722083    -0.74300
O359        O  0.87919045  0.61298066  0.02790851    -0.73700
O360        O  0.94973441  0.63646809  0.91095196    -0.74200
O361        O  0.92621041  0.66892250  0.97722200    -0.74100
O362        O  0.97151548  0.67596789  0.02004921    -0.73900
C363        C  0.07070091  0.63212034  0.00399361     0.77900
C364        C  0.97385218  0.57187148  0.01217666     0.78400
C365        C  0.96756730  0.63285307  0.10900407     0.77400
C366        C  0.86056197  0.62031093  0.99951958     0.77700
C367        C  0.97599206  0.62561238  0.89606476     0.78900
C368        C  0.94305040  0.68139497  0.99919427     0.77900
C369        C  0.75818586  0.61342512  0.03615599    -0.01200
C370        C  0.73660608  0.62258844  0.00678061     0.07400
C371        C  0.75511406  0.62910600  0.97315584    -0.07200
C372        C  0.79510471  0.62742548  0.96893895     0.04800
C373        C  0.81759691  0.61948538  0.99954845    -0.14400
C374        C  0.79840284  0.61209781  0.03255594    -0.07700
C375        C  0.69423581  0.62455061  0.00889990     0.05800
C376        C  0.67777751  0.64097477  0.02787675    -0.08900
C377        C  0.63775748  0.64439673  0.02641757     0.00700
C378        C  0.61382806  0.63139529  0.00476627     0.00600
C379        C  0.63093038  0.61467983  0.98671419    -0.12400
C380        C  0.67047426  0.61111424  0.98897019     0.01100
C381        C  0.62236352  0.66106096  0.04787500     0.40400
C382        C  0.68615128  0.59350324  0.97065774     0.37000
C383        C  0.73961410  0.60500820  0.06979671     0.36700
C384        C  0.81163058  0.63387135  0.93265887     0.37500
N385        N  0.61015082  0.67436052  0.06536425    -0.43300
N386        N  0.69874122  0.57934287  0.95624849    -0.43800
N387        N  0.82457273  0.63897510  0.90342739    -0.41100
N388        N  0.72477476  0.59807279  0.09661794    -0.42500
H389        H  0.81477636  0.60555789  0.05600087     0.13600
H390        H  0.73806064  0.63548236  0.94997976     0.10100
H391        H  0.69633372  0.65124488  0.04346182     0.11200
H392        H  0.61345359  0.60413519  0.97061381     0.17000
C393        C  0.25892315  0.64334522  0.99071448    -0.01200
C394        C  0.23688514  0.62844091  0.00902387     0.07400
C395        C  0.25524922  0.61163988  0.02463616    -0.07200
C396        C  0.29550349  0.60956987  0.02223609     0.04800
C397        C  0.31773367  0.62457141  0.00394438    -0.14400
C398        C  0.29896664  0.64133878  0.98834426    -0.07700
C399        C  0.19435052  0.62944442  0.00887222     0.05800
C400        C  0.17502314  0.62271204  0.97598108    -0.08900
C401        C  0.13489648  0.62402454  0.97337653     0.00700
C402        C  0.11337111  0.63229789  0.00428445     0.00600
C403        C  0.13297204  0.63940264  0.03700857    -0.12400
C404        C  0.17328921  0.63791677  0.03957303     0.01100
C405        C  0.11679547  0.61714525  0.93823230     0.40400
C406        C  0.19248188  0.64501841  0.07388382     0.37000
C407        C  0.24090840  0.66072559  0.97386211     0.36700
C408        C  0.31293394  0.59154461  0.03696023     0.37500
N409        N  0.10232161  0.61159149  0.91011924    -0.43300
N410        N  0.20789990  0.65065884  0.10141929    -0.43800
N411        N  0.32690186  0.57704758  0.04855180    -0.41100
N412        N  0.22636209  0.67460692  0.96033891    -0.42500
H413        H  0.31567421  0.65307572  0.97454397     0.13600
H414        H  0.23800382  0.59997216  0.03796686     0.10100
H415        H  0.19148524  0.61651506  0.95214052     0.11200
H416        H  0.11674148  0.64559505  0.06098693     0.17000
C417        C  0.51412495  0.52361385  0.98175933    -0.01200
C418        C  0.49672210  0.51110965  0.00947919     0.07400
C419        C  0.47161198  0.51946656  0.03694703    -0.07200
C420        C  0.46320580  0.53995667  0.03680611     0.04800
C421        C  0.48056178  0.55258719  0.00884542    -0.14400
C422        C  0.50605700  0.54402146  0.98169772    -0.07700
C423        C  0.50285525  0.48916361  0.00870165     0.05800
C424        C  0.54030593  0.48147403  0.01330929    -0.08900
C425        C  0.54751116  0.46096673  0.00966312     0.00700
C426        C  0.51667224  0.44770683  0.00169305     0.00600
C427        C  0.47917558  0.45549189  0.99759129    -0.12400
C428        C  0.47209027  0.47595318  0.00099836     0.01100
C429        C  0.58701591  0.45419892  0.01213371     0.40400
C430        C  0.43317510  0.48311654  0.99519629     0.37000
C431        C  0.53946094  0.51577950  0.95222155     0.36700
C432        C  0.43654896  0.54736595  0.06551971     0.37500
N433        N  0.61879566  0.44891570  0.01383513    -0.43300
N434        N  0.40203074  0.48892805  0.99063655    -0.43800
N435        N  0.41507185  0.55323192  0.08851937    -0.41100
N436        N  0.55980104  0.50951331  0.92860175    -0.42500
H437        H  0.51981709  0.55325574  0.95985513     0.13600
H438        H  0.45816373  0.50984312  0.05837071     0.10100
H439        H  0.56412949  0.49162068  0.01896260     0.11200
H440        H  0.45512121  0.44553253  0.99172236     0.17000
C441        C  0.73551090  0.35772321  0.95829176    -0.01200
C442        C  0.75899580  0.36908309  0.98309700     0.07400
C443        C  0.74242599  0.38447751  0.00496100    -0.07200
C444        C  0.70256738  0.38807507  0.00380944     0.04800
C445        C  0.67853364  0.37605370  0.98032216    -0.14400
C446        C  0.69575007  0.36127808  0.95704419    -0.07700
C447        C  0.80093230  0.36511546  0.98666609     0.05800
C448        C  0.82490837  0.36872639  0.95480338    -0.08900
C449        C  0.86486599  0.36620814  0.95756869     0.00700
C450        C  0.88144596  0.35986926  0.99279177     0.00600
C451        C  0.85727383  0.35535927  0.02417530    -0.12400
C452        C  0.81721228  0.35809846  0.02144136     0.01100
C453        C  0.88832436  0.37042053  0.92392412     0.40400
C454        C  0.79335501  0.35393992  0.05475096     0.37000
C455        C  0.75131615  0.34176596  0.93511564     0.36700
C456        C  0.68747451  0.40422250  0.02688798     0.37500
N457        N  0.90728228  0.37382778  0.89713614    -0.43300
N458        N  0.77405632  0.35071120  0.08136947    -0.43800
N459        N  0.67573030  0.41720208  0.04553841    -0.41100
N460        N  0.76404442  0.32900560  0.91653280    -0.42500
H461        H  0.67794969  0.35183269  0.93887765     0.13600
H462        H  0.76072717  0.39356409  0.02333240     0.10100
H463        H  0.81240156  0.37396696  0.92796253     0.11200
H464        H  0.86981818  0.35066678  0.05136623     0.17000
C465        C  0.23692803  0.37661212  0.05240791    -0.01200
C466        C  0.25872821  0.36621694  0.02455866     0.07400
C467        C  0.23968012  0.35599721  0.99504538    -0.07200
C468        C  0.19945963  0.35652195  0.99189966     0.04800
C469        C  0.17721884  0.36802644  0.01838738    -0.14400
C470        C  0.19656565  0.37760791  0.04898172    -0.07700
C471        C  0.30154547  0.36652714  0.02382646     0.05800
C472        C  0.32191544  0.34877177  0.03038062    -0.08900
C473        C  0.36206788  0.34784301  0.02491768     0.00700
C474        C  0.38245086  0.36489600  0.01161053     0.00600
C475        C  0.36174427  0.38279397  0.00610820    -0.12400
C476        C  0.32183855  0.38373938  0.01221692     0.01100
C477        C  0.38108064  0.32909120  0.03253343     0.40400
C478        C  0.30209483  0.40236806  0.00503477     0.37000
C479        C  0.25536132  0.38599351  0.08504637     0.36700
C480        C  0.18242127  0.34467400  0.96147847     0.37500
N481        N  0.39624326  0.31406052  0.03891245    -0.43300
N482        N  0.28624397  0.41729511  0.99946576    -0.43800
N483        N  0.16900767  0.33503781  0.93721077    -0.41100
N484        N  0.27014782  0.39335867  0.11138058    -0.42500
H485        H  0.18025071  0.38592441  0.07031418     0.13600
H486        H  0.25649875  0.34771032  0.97400381     0.10100
H487        H  0.30619456  0.33548546  0.03919013     0.11200
H488        H  0.37666652  0.39620769  0.99670656     0.17000
C489        C  0.01917686  0.52055439  0.00226996    -0.01200
C490        C  0.99265610  0.50810426  0.02186951     0.07400
C491        C  0.95929006  0.51671497  0.03800956    -0.07200
C492        C  0.95180689  0.53722693  0.03439045     0.04800
C493        C  0.97893893  0.54981364  0.01567356    -0.14400
C494        C  0.01239759  0.54111144  0.99975494    -0.07700
C495        C  0.99843277  0.48602174  0.02402047     0.05800
C496        C  0.03283843  0.47830300  0.03963170    -0.08900
C497        C  0.04060265  0.45771096  0.03919504     0.00700
C498        C  0.01326671  0.44430194  0.02334150     0.00600
C499        C  0.97829609  0.45209796  0.00904306    -0.12400
C500        C  0.97078846  0.47259929  0.00910806     0.01100
C501        C  0.07746048  0.45099773  0.05366213     0.40400
C502        C  0.93501917  0.47945630  0.99225961     0.37000
C503        C  0.05284431  0.51252327  0.98307054     0.36700
C504        C  0.91510161  0.54461331  0.04819543     0.37500
N505        N  0.10708538  0.44565501  0.06515496    -0.43300
N506        N  0.90626454  0.48490576  0.97891416    -0.43800
N507        N  0.88545910  0.55045663  0.05882044    -0.41100
N508        N  0.07976570  0.50608101  0.96761336    -0.42500
H509        H  0.03348651  0.55038842  0.98494016     0.13600
H510        H  0.93851071  0.50726243  0.05285041     0.10100
H511        H  0.05411918  0.48848533  0.05151524     0.11200
H512        H  0.95662356  0.44214101  0.99715324     0.17000
C513        C  0.47547647  0.61949254  0.21002739    -0.01200
C514        C  0.49667851  0.63515947  0.22684326     0.07400
C515        C  0.50861281  0.65126314  0.20404545    -0.07200
C516        C  0.50028325  0.65184946  0.16453091     0.04800
C517        C  0.48006959  0.63575188  0.14695611    -0.14400
C518        C  0.46752838  0.61982656  0.17044688    -0.07700
C519        C  0.50504872  0.63544618  0.26865889     0.05800
C520        C  0.54052582  0.62813405  0.28206907    -0.08900
C521        C  0.54872702  0.62767357  0.32171168     0.00700
C522        C  0.52084308  0.63456768  0.34854560     0.00600
C523        C  0.48574583  0.64232017  0.33460072    -0.12400
C524        C  0.47774880  0.64280650  0.29513798     0.01100
C525        C  0.58629508  0.62069014  0.33374039     0.40400
C526        C  0.44123028  0.65084487  0.28239133     0.37000
C527        C  0.46158041  0.60295445  0.23296385     0.36700
C528        C  0.51228766  0.66939807  0.14336681     0.37500
N529        N  0.61651074  0.61517837  0.34324346    -0.43300
N530        N  0.41200106  0.65730823  0.27213042    -0.43800
N531        N  0.52183965  0.68353076  0.12660318    -0.41100
N532        N  0.45034429  0.58976678  0.25146433    -0.42500
H533        H  0.45181285  0.60739878  0.15788513     0.13600
H534        H  0.52417347  0.66355037  0.21735963     0.10100
H535        H  0.56175562  0.62274089  0.26149742     0.11200
H536        H  0.46402237  0.64773194  0.35462600     0.17000
C537        C  0.46807284  0.63977941  0.78582416    -0.01200
C538        C  0.49152030  0.62508526  0.76861283     0.07400
C539        C  0.50722570  0.60992074  0.79143724    -0.07200
C540        C  0.50031939  0.60932138  0.83125183     0.04800
C541        C  0.47785515  0.62449497  0.84908320    -0.14400
C542        C  0.46148952  0.63942231  0.82570981    -0.07700
C543        C  0.49937788  0.62511592  0.72661441     0.05800
C544        C  0.53561238  0.63144923  0.71313183    -0.08900
C545        C  0.54354975  0.63234838  0.67345500     0.00700
C546        C  0.51454079  0.62697855  0.64653465     0.00600
C547        C  0.47864703  0.62012340  0.66050201    -0.12400
C548        C  0.47102556  0.61905247  0.70005509     0.01100
C549        C  0.58201157  0.63813517  0.66152166     0.40400
C550        C  0.43410049  0.61140053  0.71282616     0.37000
C551        C  0.45101322  0.65552566  0.76307788     0.36700
C552        C  0.51574987  0.59258328  0.85254145     0.37500
N553        N  0.61293565  0.64266786  0.65210714    -0.43300
N554        N  0.40459319  0.60517804  0.72310219    -0.43800
N555        N  0.52801119  0.57909822  0.86943512    -0.41100
N556        N  0.43732888  0.66807032  0.74466462    -0.42500
H557        H  0.44408161  0.65110403  0.83865019     0.13600
H558        H  0.52461081  0.59837913  0.77795115     0.10100
H559        H  0.55770560  0.63575187  0.73373314     0.11200
H560        H  0.45617046  0.61566993  0.64045729     0.17000
C561        C  0.82195628  0.62616349  0.53471722    -0.01200
C562        C  0.80130719  0.62895110  0.50006945     0.07400
C563        C  0.82130354  0.63408684  0.46619008    -0.07200
C564        C  0.86153178  0.63628673  0.46640275     0.04800
C565        C  0.88203274  0.63362921  0.50119479    -0.14400
C566        C  0.86196499  0.62852090  0.53497758    -0.07700
C567        C  0.75868626  0.62758463  0.49940992     0.05800
C568        C  0.73781537  0.64056828  0.52312325    -0.08900
C569        C  0.69764703  0.63973359  0.52483520     0.00700
C570        C  0.67727176  0.62574727  0.50170923     0.00600
C571        C  0.69835741  0.61289547  0.47746573    -0.12400
C572        C  0.73879317  0.61367540  0.47623669     0.01100
C573        C  0.67867249  0.65389895  0.54998870     0.40400
C574        C  0.75919283  0.59988537  0.45151526     0.37000
C575        C  0.80286979  0.62045618  0.57020230     0.36700
C576        C  0.88120519  0.63999309  0.43026553     0.37500
N577        N  0.66379281  0.66524299  0.57034624    -0.43300
N578        N  0.77551248  0.58887160  0.43159284    -0.43800
N579        N  0.89697489  0.64278652  0.40125291    -0.41100
N580        N  0.78756815  0.61596520  0.59865955    -0.42500
H581        H  0.87772803  0.62612529  0.56162823     0.13600
H582        H  0.80544659  0.63628968  0.43955200     0.10100
H583        H  0.75315576  0.65148388  0.54046290     0.11200
H584        H  0.68329632  0.60216432  0.45952379     0.17000
C585        C  0.32085505  0.62197095  0.51750851    -0.01200
C586        C  0.30030405  0.63063799  0.48683768     0.07400
C587        C  0.32010848  0.64202157  0.45913706    -0.07200
C588        C  0.36034051  0.64445548  0.46112331     0.04800
C589        C  0.38122581  0.63548929  0.49163185    -0.14400
C590        C  0.36085788  0.62439577  0.51963268    -0.07700
C591        C  0.25773413  0.62918366  0.48516447     0.05800
C592        C  0.23623988  0.64552791  0.49796091    -0.08900
C593        C  0.19607913  0.64438295  0.50089559     0.00700
C594        C  0.17658843  0.62656674  0.49032962     0.00600
C595        C  0.19814259  0.61041096  0.47607799    -0.12400
C596        C  0.23859277  0.61151235  0.47393624     0.01100
C597        C  0.17579606  0.66188300  0.51452569     0.40400
C598        C  0.25997642  0.59426854  0.46101166     0.37000
C599        C  0.30131545  0.61085635  0.54754214     0.36700
C600        C  0.37932971  0.65553572  0.43074185     0.37500
N601        N  0.15976353  0.67591202  0.52563456    -0.43300
N602        N  0.27717944  0.58042229  0.45085371    -0.43800
N603        N  0.39447410  0.66440418  0.40631643    -0.41100
N604        N  0.28554930  0.60200021  0.57158438    -0.42500
H605        H  0.37624998  0.61751060  0.54342556     0.13600
H606        H  0.30405537  0.64890753  0.43578499     0.10100
H607        H  0.25106865  0.65908098  0.50664267     0.11200
H608        H  0.18352670  0.59674141  0.46780902     0.17000
C609        C  0.95601632  0.62048007  0.21530364    -0.01200
C610        C  0.97922486  0.63508761  0.23301785     0.07400
C611        C  0.99620062  0.65003946  0.21041360    -0.07200
C612        C  0.99188162  0.65013511  0.17024423     0.04800
C613        C  0.97023230  0.63479404  0.15184466    -0.14400
C614        C  0.95169885  0.62041518  0.17514467    -0.07700
C615        C  0.98838688  0.63423286  0.27471179     0.05800
C616        C  0.01326792  0.61924462  0.28789215    -0.08900
C617        C  0.02378479  0.61803909  0.32683450     0.00700
C618        C  0.00922049  0.63217043  0.35363336     0.00600
C619        C  0.98415153  0.64720468  0.33993731    -0.12400
C620        C  0.97372235  0.64830706  0.30098939     0.01100
C621        C  0.04956992  0.60213143  0.33791657     0.40400
C622        C  0.94723666  0.66370443  0.28877586     0.37000
C623        C  0.93640273  0.60541950  0.23788106     0.36700
C624        C  0.01052381  0.66609882  0.14917474     0.37500
N625        N  0.07028850  0.58933961  0.34651171    -0.43300
N626        N  0.92591969  0.67600549  0.27902590    -0.43800
N627        N  0.02560275  0.67894762  0.13258528    -0.41100
N628        N  0.92057898  0.59342320  0.25607863    -0.42500
H629        H  0.93436732  0.60874908  0.16201094     0.13600
H630        H  0.01377927  0.66142029  0.22421918     0.10100
H631        H  0.02470883  0.60847091  0.26747434     0.11200
H632        H  0.97220929  0.65813524  0.35970148     0.17000
C633        C  0.02402255  0.61501366  0.79962045    -0.01200
C634        C  0.00242976  0.62683959  0.77395564     0.07400
C635        C  0.97156196  0.63820705  0.78816182    -0.07200
C636        C  0.96184920  0.63793109  0.82746959     0.04800
C637        C  0.98373924  0.62620410  0.85363730    -0.14400
C638        C  0.01477538  0.61486708  0.83894000    -0.07700
C639        C  0.01031995  0.62667916  0.73187160     0.05800
C640        C  0.00355742  0.60903890  0.71121117    -0.08900
C641        C  0.00963352  0.60822279  0.67133381     0.00700
C642        C  0.02288125  0.62535794  0.65138732     0.00600
C643        C  0.03050539  0.64289414  0.67229084    -0.12400
C644        C  0.02399699  0.64372759  0.71218741     0.01100
C645        C  0.00279054  0.58948271  0.65185618     0.40400
C646        C  0.03151212  0.66220129  0.73228702     0.37000
C647        C  0.05596080  0.60297274  0.78622553     0.36700
C648        C  0.92883682  0.64955278  0.83950909     0.37500
N649        N  0.99731556  0.57444899  0.63632810    -0.43300
N650        N  0.03743882  0.67704703  0.74830791    -0.43800
N651        N  0.90224804  0.65882772  0.84895847    -0.41100
N652        N  0.08139826  0.59327365  0.77532969    -0.42500
H653        H  0.03206571  0.60576253  0.85814470     0.13600
H654        H  0.95454026  0.64706393  0.76825389     0.10100
H655        H  0.99316485  0.59589330  0.72633684     0.11200
H656        H  0.04048033  0.65615576  0.65727017     0.17000
C657        C  0.02741361  0.37175263  0.22126399    -0.01200
C658        C  0.99263278  0.36415605  0.23665694     0.07400
C659        C  0.96488028  0.35609245  0.21175117    -0.07200
C660        C  0.97133934  0.35539458  0.17183046     0.04800
C661        C  0.00625267  0.36311000  0.15613335    -0.14400
C662        C  0.03390414  0.37120282  0.18141819    -0.07700
C663        C  0.98482017  0.36439302  0.27874280     0.05800
C664        C  0.95609313  0.37705869  0.29342297    -0.08900
C665        C  0.94894399  0.37825935  0.33325375     0.00700
C666        C  0.97079959  0.36644491  0.35922053     0.00600
C667        C  0.99892515  0.35341854  0.34390583    -0.12400
C668        C  0.00596685  0.35230006  0.30426898     0.01100
C669        C  0.91903714  0.39169895  0.34622864     0.40400
C670        C  0.03496117  0.33853368  0.29041376     0.37000
C671        C  0.05663812  0.38045339  0.24578417     0.36700
C672        C  0.94106095  0.34716292  0.14795986     0.37500
N673        N  0.89503888  0.40250832  0.35645622    -0.43300
N674        N  0.05826622  0.32755701  0.27930551    -0.43800
N675        N  0.91672298  0.34052726  0.12898700    -0.41100
N676        N  0.08009217  0.38734264  0.26549597    -0.42500
H677        H  0.06082334  0.37713591  0.17008763     0.13600
H678        H  0.93809521  0.35026119  0.22363004     0.10100
H679        H  0.93956627  0.38625705  0.27365433     0.11200
H680        H  0.01602129  0.34410101  0.36293765     0.17000
C681        C  0.02276827  0.38632911  0.71063854    -0.01200
C682        C  0.00634543  0.37245207  0.73636781     0.07400
C683        C  0.98097005  0.35784623  0.72235960    -0.07200
C684        C  0.97160306  0.35692529  0.68308363     0.04800
C685        C  0.98783333  0.37096614  0.65699224    -0.14400
C686        C  0.01346893  0.38551031  0.67143277    -0.07700
C687        C  0.01457700  0.37320847  0.77822109     0.05800
C688        C  0.99880067  0.38874851  0.80013670    -0.08900
C689        C  0.00420118  0.38955312  0.84010559     0.00700
C690        C  0.02551753  0.37433827  0.85897181     0.00600
C691        C  0.04253550  0.35920311  0.83644897    -0.12400
C692        C  0.03727735  0.35857150  0.79642677     0.01100
C693        C  0.98781615  0.40631391  0.86060802     0.40400
C694        C  0.05570788  0.34291030  0.77449136     0.37000
C695        C  0.04987729  0.40125737  0.72377090     0.36700
C696        C  0.94610846  0.34110897  0.67060790     0.37500
N697        N  0.97474484  0.41977181  0.87699053    -0.43300
N698        N  0.07061713  0.33044048  0.75681052    -0.43800
N699        N  0.92568912  0.32839968  0.66074379    -0.41100
N700        N  0.07169344  0.41316036  0.73435612    -0.42500
H701        H  0.02639634  0.39638721  0.65205703     0.13600
H702        H  0.96839306  0.34712584  0.74230996     0.10100
H703        H  0.98183560  0.40020169  0.78591009     0.11200
H704        H  0.05932653  0.34752467  0.85014103     0.17000
C705        C  0.01915315  0.47466652  0.51423192    -0.01200
C706        C  0.98964893  0.48788710  0.50323162     0.07400
C707        C  0.95288184  0.48034559  0.49425091    -0.07200
C708        C  0.94544351  0.45973314  0.49544997     0.04800
C709        C  0.97539436  0.44634888  0.50542058    -0.14400
C710        C  0.01195504  0.45415262  0.51507466    -0.07700
C711        C  0.99680059  0.50967219  0.50168316     0.05800
C712        C  0.01208429  0.51810530  0.46789279    -0.08900
C713        C  0.02042611  0.53859395  0.46575308     0.00700
C714        C  0.01368104  0.55100380  0.49816157     0.00600
C715        C  0.99853962  0.54228239  0.53205147    -0.12400
C716        C  0.99010502  0.52187548  0.53399068     0.01100
C717        C  0.03429249  0.54643267  0.42947746     0.40400
C718        C  0.97470396  0.51372842  0.56945632     0.37000
C719        C  0.05696096  0.48187256  0.52513393     0.36700
C720        C  0.90662399  0.45284906  0.48789684     0.37500
N721        N  0.04525781  0.55254435  0.40018094    -0.43300
N722        N  0.96234498  0.50718210  0.59784719    -0.43800
N723        N  0.87547900  0.44728026  0.48211723    -0.41100
N724        N  0.08717906  0.48766666  0.53406435    -0.42500
H725        H  0.03533057  0.44417940  0.52297607     0.13600
H726        H  0.92992373  0.49061532  0.48656381     0.10100
H727        H  0.01731894  0.50862767  0.44304023     0.11200
H728        H  0.99314915  0.55144283  0.55729824     0.17000
C729        C  0.67226830  0.37997618  0.48756182    -0.01200
C730        C  0.69298403  0.36382653  0.50311169     0.07400
C731        C  0.67265352  0.34730592  0.51779531    -0.07200
C732        C  0.63205387  0.34652533  0.51636351     0.04800
C733        C  0.61118494  0.36256899  0.49981136    -0.14400
C734        C  0.63209453  0.37915616  0.48573679    -0.07700
C735        C  0.73579370  0.36445330  0.50518948     0.05800
C736        C  0.75357972  0.36525356  0.54144696    -0.08900
C737        C  0.79364492  0.36781448  0.54466254     0.00700
C738        C  0.81659022  0.36993973  0.51097451     0.00600
C739        C  0.79862399  0.36878349  0.47469681    -0.12400
C740        C  0.75875531  0.36573637  0.47157776     0.01100
C741        C  0.81010057  0.36864726  0.58290203     0.40400
C742        C  0.74209431  0.36356794  0.43360295     0.37000
C743        C  0.69152139  0.39788817  0.47426544     0.36700
C744        C  0.61297139  0.32915634  0.53212967     0.37500
N745        N  0.82324028  0.36920457  0.61357754    -0.43300
N746        N  0.72869630  0.36179736  0.40321482    -0.43800
N747        N  0.59778719  0.31522340  0.54491117    -0.41100
N748        N  0.70696043  0.41220424  0.46355406    -0.42500
H749        H  0.61709355  0.39188651  0.47353455     0.13600
H750        H  0.68860937  0.33496467  0.53030554     0.10100
H751        H  0.73596632  0.36426740  0.56732869     0.11200
H752        H  0.81591188  0.36971254  0.44859335     0.17000
C753        C  0.25671410  0.37130041  0.51689833    -0.01200
C754        C  0.23546554  0.37290203  0.48238917     0.07400
C755        C  0.25446877  0.37805000  0.44804259    -0.07200
C756        C  0.29454853  0.38086859  0.44737111     0.04800
C757        C  0.31609106  0.37879930  0.48177244    -0.14400
C758        C  0.29668271  0.37434414  0.51637833    -0.07700
C759        C  0.19307290  0.37026572  0.48205876     0.05800
C760        C  0.16994597  0.38711861  0.47644584    -0.08900
C761        C  0.12979260  0.38576468  0.47933082     0.00700
C762        C  0.11225878  0.36726508  0.48863413     0.00600
C763        C  0.13530236  0.35013466  0.49180093    -0.12400
C764        C  0.17557564  0.35150764  0.48842648     0.01100
C765        C  0.10724825  0.40347084  0.47153739     0.40400
C766        C  0.19841406  0.33355764  0.49142797     0.37000
C767        C  0.23808215  0.36658717  0.55314209     0.36700
C768        C  0.31264205  0.38620759  0.41120279     0.37500
N769        N  0.08919450  0.41760539  0.46500017    -0.43300
N770        N  0.21676861  0.31917395  0.49361855    -0.43800
N771        N  0.32703289  0.39052148  0.38217856    -0.41100
N772        N  0.22310756  0.36274465  0.58212144    -0.42500
H773        H  0.31293531  0.37255241  0.54289111     0.13600
H774        H  0.23793533  0.37968989  0.42166444     0.10100
H775        H  0.18339576  0.40143617  0.47044452     0.11200
H776        H  0.12197876  0.33581703  0.49798687     0.17000
C777        C  0.53692272  0.37153027  0.28969651    -0.01200
C778        C  0.50821958  0.36837009  0.26160327     0.07400
C779        C  0.46976753  0.36554751  0.27324254    -0.07200
C780        C  0.45941871  0.36614561  0.31234671     0.04800
C781        C  0.48807025  0.36959648  0.34070368    -0.14400
C782        C  0.52668490  0.37221613  0.32877816    -0.07700
C783        C  0.51745107  0.36808450  0.21981612     0.05800
C784        C  0.51574409  0.34991225  0.19992459    -0.08900
C785        C  0.52191554  0.34912203  0.15998770     0.00700
C786        C  0.52992125  0.36687893  0.13916637     0.00600
C787        C  0.53263785  0.38499414  0.15952333    -0.12400
C788        C  0.52619944  0.38573668  0.19942471     0.01100
C789        C  0.52023040  0.32984359  0.14140273     0.40400
C790        C  0.52693641  0.40487915  0.21857183     0.37000
C791        C  0.57710431  0.37374750  0.27912153     0.36700
C792        C  0.41905102  0.36392385  0.32216181     0.37500
N793        N  0.51884237  0.31437227  0.12660063    -0.43300
N794        N  0.52739225  0.42021743  0.23392836    -0.43800
N795        N  0.38664774  0.36214552  0.32984069    -0.41100
N796        N  0.60933580  0.37548082  0.27071773    -0.42500
H797        H  0.54914748  0.37462053  0.35012156     0.13600
H798        H  0.44764003  0.36315003  0.25153865     0.10100
H799        H  0.50920138  0.33630802  0.21569022     0.11200
H800        H  0.53833593  0.39877629  0.14403383     0.17000
C801        C  0.46414604  0.38410286  0.78774821    -0.01200
C802        C  0.48618276  0.37270024  0.76150072     0.07400
C803        C  0.51720044  0.36140072  0.77555004    -0.07200
C804        C  0.52618591  0.36097724  0.81493397     0.04800
C805        C  0.50432305  0.37251852  0.84154387    -0.14400
C806        C  0.47336847  0.38397917  0.82716977    -0.07700
C807        C  0.47792321  0.37245770  0.71923981     0.05800
C808        C  0.47878652  0.39045151  0.69838607    -0.08900
C809        C  0.47339100  0.39068569  0.65827892     0.00700
C810        C  0.46752464  0.37258008  0.63816070     0.00600
C811        C  0.46643926  0.35461749  0.65903362    -0.12400
C812        C  0.47119633  0.35442271  0.69916562     0.01100
C813        C  0.47619209  0.40956180  0.63827759     0.40400
C814        C  0.46859811  0.33553005  0.71912487     0.37000
C815        C  0.43133860  0.39567121  0.77508236     0.36700
C816        C  0.55772668  0.34826385  0.82670109     0.37500
N817        N  0.47850612  0.42467079  0.62219918    -0.43300
N818        N  0.46658902  0.32038329  0.73510048    -0.43800
N819        N  0.58291868  0.33797627  0.83594935    -0.41100
N820        N  0.40510031  0.40496045  0.76485708    -0.42500
H821        H  0.45597323  0.39285924  0.84678871     0.13600
H822        H  0.53458292  0.35276479  0.75547241     0.10100
H823        H  0.48462465  0.40434764  0.71340963     0.11200
H824        H  0.46166672  0.34064085  0.64390345     0.17000
C825        C  0.52572406  0.47614419  0.48430494    -0.01200
C826        C  0.49535083  0.48987379  0.48956288     0.07400
C827        C  0.45745449  0.48270415  0.49439295    -0.07200
C828        C  0.44959590  0.46215826  0.49446952     0.04800
C829        C  0.48011383  0.44838292  0.48933496    -0.14400
C830        C  0.51790208  0.45567394  0.48404484    -0.07700
C831        C  0.50270030  0.51173496  0.49027152     0.05800
C832        C  0.51860840  0.52105843  0.45757043    -0.08900
C833        C  0.52623276  0.54162146  0.45721162     0.00700
C834        C  0.51734400  0.55333336  0.49003071     0.00600
C835        C  0.50160857  0.54384411  0.52279133    -0.12400
C836        C  0.49445151  0.52329427  0.52322310     0.01100
C837        C  0.54195044  0.55026296  0.42235269     0.40400
C838        C  0.47947902  0.51433536  0.55814513     0.37000
C839        C  0.56534704  0.48267340  0.48031935     0.36700
C840        C  0.40992755  0.45572564  0.49855783     0.37500
N841        N  0.55462700  0.55712789  0.39438160    -0.43300
N842        N  0.46751047  0.50713948  0.58611322    -0.43800
N843        N  0.37812205  0.45057717  0.50176173    -0.41100
N844        N  0.59707734  0.48793121  0.47710591    -0.42500
H845        H  0.54172725  0.44529838  0.48043115     0.13600
H846        H  0.43389643  0.49324479  0.49797417     0.10100
H847        H  0.52485680  0.51220823  0.43207731     0.11200
H848        H  0.49496644  0.55250601  0.54841954     0.17000
C849        C  0.63458364  0.22984896  0.01818736    -0.01200
C850        C  0.63557287  0.24179019  0.98481383     0.07400
C851        C  0.65787586  0.23557890  0.95308283    -0.07200
C852        C  0.67817160  0.21735961  0.95391325     0.04800
C853        C  0.67586905  0.20491443  0.98697237    -0.14400
C854        C  0.65452799  0.21173985  0.01905091    -0.07700
C855        C  0.61427309  0.26105380  0.98352670     0.05800
C856        C  0.62884033  0.27722880  0.00463700    -0.08900
C857        C  0.60885599  0.29535739  0.00613712     0.00700
C858        C  0.57349645  0.29755111  0.98633577     0.00600
C859        C  0.55862071  0.28136448  0.96537919    -0.12400
C860        C  0.57868537  0.26312001  0.96399226     0.01100
C861        C  0.62528788  0.31161626  0.02809438     0.40400
C862        C  0.56205895  0.24664127  0.94292262     0.37000
C863        C  0.61227546  0.23562427  0.05164138     0.36700
C864        C  0.70005962  0.21171199  0.92013108     0.37500
N865        N  0.63838227  0.32464342  0.04570922    -0.43300
N866        N  0.54868915  0.23340516  0.92611613    -0.43800
N867        N  0.71770578  0.20734851  0.89299926    -0.41100
N868        N  0.59438140  0.24026848  0.07842157    -0.42500
H869        H  0.65254786  0.20264895  0.04489576     0.13600
H870        H  0.65921934  0.24493882  0.92756019     0.10100
H871        H  0.65588341  0.27563018  0.02010559     0.11200
H872        H  0.53169820  0.28305619  0.94976524     0.17000
C873        C  0.00777831  0.12425607  0.96883528    -0.01200
C874        C  0.98409385  0.12930881  0.00055407     0.07400
C875        C  0.00083084  0.13104211  0.03723217    -0.07200
C876        C  0.04068902  0.12852597  0.04249860     0.04800
C877        C  0.06473495  0.12386841  0.01052009    -0.14400
C878        C  0.04750177  0.12146225  0.97406671    -0.07700
C879        C  0.94162538  0.13203379  0.99626660     0.05800
C880        C  0.91964093  0.11604785  0.98215558    -0.08900
C881        C  0.87956799  0.11756359  0.97864302     0.00700
C882        C  0.86053338  0.13532903  0.98959564     0.00600
C883        C  0.88240606  0.15155972  0.00292279    -0.12400
C884        C  0.92274941  0.14999542  0.00656590     0.01100
C885        C  0.85848267  0.10064982  0.96350066     0.40400
C886        C  0.94414742  0.16691820  0.02107262     0.37000
C887        C  0.99228412  0.12262806  0.93028584     0.36700
C888        C  0.05570505  0.13079247  0.08111026     0.37500
N889        N  0.84143804  0.08717058  0.95135740    -0.43300
N890        N  0.96141090  0.18040375  0.03287917    -0.43800
N891        N  0.06749035  0.13270024  0.11212915    -0.41100
N892        N  0.97986350  0.12130575  0.89940340    -0.42500
H893        H  0.06529082  0.11812660  0.94908036     0.13600
H894        H  0.98261067  0.13442823  0.06189796     0.10100
H895        H  0.93383471  0.10219033  0.97436057     0.11200
H896        H  0.86788825  0.16515660  0.01174155     0.17000
C897        C  0.41502243  0.13369882  0.94959224    -0.01200
C898        C  0.44058858  0.13103332  0.98075605     0.07400
C899        C  0.42628660  0.13119396  0.01860675    -0.07200
C900        C  0.38681187  0.13353326  0.02581033     0.04800
C901        C  0.36102059  0.13609260  0.99471294    -0.14400
C902        C  0.37546622  0.13639948  0.95678631    -0.07700
C903        C  0.48279281  0.12920611  0.97530369     0.05800
C904        C  0.50517777  0.14650491  0.97857157    -0.08900
C905        C  0.54543691  0.14538948  0.97996803     0.00700
C906        C  0.56400458  0.12659781  0.97801719     0.00600
C907        C  0.54161046  0.10933610  0.97244173    -0.12400
C908        C  0.50109110  0.11050955  0.97149342     0.01100
C909        C  0.56693846  0.16382939  0.98327496     0.40400
C910        C  0.47875608  0.09237038  0.96824726     0.37000
C911        C  0.42862539  0.13325424  0.91018740     0.36700
C912        C  0.37352668  0.13356062  0.06537688     0.37500
N913        N  0.58393905  0.17866186  0.98588269    -0.43300
N914        N  0.46073965  0.07785730  0.96572683    -0.43800
N915        N  0.36285942  0.13359859  0.09706461    -0.41100
N916        N  0.43940948  0.13277646  0.87855417    -0.42500
H917        H  0.35566142  0.13797321  0.93275024     0.13600
H918        H  0.44611028  0.12943326  0.04258432     0.10100
H919        H  0.49102524  0.16088167  0.98130908     0.11200
H920        H  0.55563067  0.09490005  0.97057905     0.17000
C921        C  0.09780610  0.26559852  0.97577915    -0.01200
C922        C  0.11370728  0.25948116  0.01133670     0.07400
C923        C  0.10648950  0.27082307  0.04459209    -0.07200
C924        C  0.08349046  0.28792561  0.04303304     0.04800
C925        C  0.06761082  0.29410269  0.00748000    -0.14400
C926        C  0.07522776  0.28290705  0.97407340    -0.07700
C927        C  0.13587014  0.24064574  0.01500806     0.05800
C928        C  0.17041545  0.23802714  0.99420849    -0.08900
C929        C  0.19030029  0.21977385  0.99521236     0.00700
C930        C  0.17559305  0.20379718  0.01770462     0.00600
C931        C  0.14197031  0.20701517  0.03991337    -0.12400
C932        C  0.12207477  0.22504904  0.03851178     0.01100
C933        C  0.22519571  0.21792462  0.97255321     0.40400
C934        C  0.08637536  0.22678709  0.06001415     0.37000
C935        C  0.10393753  0.25424914  0.94086701     0.36700
C936        C  0.07882796  0.29959508  0.07779571     0.37500
N937        N  0.25316505  0.21644249  0.95438013    -0.43300
N938        N  0.05781040  0.22825248  0.07722769    -0.43800
N939        N  0.07521138  0.30900126  0.10558174    -0.41100
N940        N  0.10903007  0.24511753  0.91296746    -0.42500
H941        H  0.06389623  0.28787611  0.94646841     0.13600
H942        H  0.11906396  0.26628394  0.07193832     0.10100
H943        H  0.18144233  0.25016167  0.97663104     0.11200
H944        H  0.12997055  0.19513698  0.05749587     0.17000
C945        C  0.88617309  0.77542497  0.98436782    -0.01200
C946        C  0.87247118  0.76007946  0.00843611     0.07400
C947        C  0.84007375  0.76359113  0.03191209    -0.07200
C948        C  0.82104801  0.78215513  0.03144056     0.04800
C949        C  0.83407346  0.79754467  0.00637435    -0.14400
C950        C  0.86701638  0.79378480  0.98332009    -0.07700
C951        C  0.89018236  0.73989567  0.00705881     0.05800
C952        C  0.92342332  0.73580886  0.02875634    -0.08900
C953        C  0.94197036  0.71717843  0.02622492     0.00700
C954        C  0.92715654  0.70216911  0.00135393     0.00600
C955        C  0.89401721  0.70666498  0.97931527    -0.12400
C956        C  0.87566190  0.72520355  0.98200779     0.01100
C957        C  0.97602703  0.71410612  0.04945264     0.40400
C958        C  0.84207188  0.72894788  0.95841119     0.37000
C959        C  0.91971970  0.77252722  0.96009980     0.36700
C960        C  0.78865044  0.78485919  0.05721905     0.37500
N961        N  0.00337240  0.71176303  0.06808799    -0.43300
N962        N  0.81518297  0.73201082  0.93951298    -0.43800
N963        N  0.76282198  0.78697855  0.07810992    -0.41100
N964        N  0.94667645  0.77013111  0.94081591    -0.42500
H965        H  0.87822398  0.80525225  0.96421515     0.13600
H966        H  0.82951275  0.75172956  0.05050585     0.10100
H967        H  0.93502557  0.74728250  0.04756452     0.11200
H968        H  0.88188544  0.69559324  0.95997315     0.17000
C969        C  0.77489809  0.02546738  0.01325194    -0.01200
C970        C  0.74720133  0.01111328  0.00247817     0.07400
C971        C  0.71060933  0.01746078  0.99005084    -0.07200
C972        C  0.70149439  0.03783948  0.98776172     0.04800
C973        C  0.72955418  0.05232226  0.99768913    -0.14400
C974        C  0.76599473  0.04579347  0.01070291    -0.07700
C975        C  0.75601483  0.98941574  0.00345790     0.05800
C976        C  0.76178006  0.97991128  0.03911044    -0.08900
C977        C  0.76910444  0.95933868  0.04104605     0.00700
C978        C  0.77058264  0.94792963  0.00675156     0.00600
C979        C  0.76524871  0.95756917  0.97111973    -0.12400
C980        C  0.75832928  0.97812274  0.96922554     0.01100
C981        C  0.77286011  0.95017734  0.07859390     0.40400
C982        C  0.75448286  0.98740700  0.93180393     0.37000
C983        C  0.81298749  0.01970347  0.02608165     0.36700
C984        C  0.66277866  0.04334563  0.97659790     0.37500
N985        N  0.77574417  0.94280840  0.10867558    -0.43300
N986        N  0.75155762  0.99490082  0.90184855    -0.43800
N987        N  0.63164088  0.04771592  0.96788061    -0.41100
N988        N  0.84347021  0.01507636  0.03644393    -0.42500
H989        H  0.78801415  0.05662097  0.01839930     0.13600
H990        H  0.68902960  0.00640632  0.98230238     0.10100
H991        H  0.75989008  0.98855677  0.06552262     0.11200
H992        H  0.76664593  0.94900596  0.94457051     0.17000
C993        C  0.57813069  0.85706029  0.02593935    -0.01200
C994        C  0.55873165  0.86450544  0.99320393     0.07400
C995        C  0.57996654  0.86910575  0.95986361    -0.07200
C996        C  0.62021234  0.86723738  0.95928361     0.04800
C997        C  0.63995604  0.86064906  0.99265401    -0.14400
C998        C  0.61848632  0.85506747  0.02537143    -0.07700
C999        C  0.51626423  0.86756473  0.99283175     0.05800
C1000       C  0.49991776  0.88285773  0.01521187    -0.08900
C1001       C  0.45992782  0.88646804  0.01466170     0.00700
C1002       C  0.43556705  0.87467559  0.99100178     0.00600
C1003       C  0.45245356  0.85944583  0.96851525    -0.12400
C1004       C  0.49218561  0.85579015  0.96940759     0.01100
C1005       C  0.44506740  0.90247485  0.03827098     0.40400
C1006       C  0.50749556  0.83941897  0.94698490     0.37000
C1007       C  0.55719163  0.85151393  0.06040117     0.36700
C1008       C  0.64057952  0.87213542  0.92403026     0.37500
N1009       N  0.43329846  0.91530506  0.05730633    -0.43300
N1010       N  0.51981994  0.82626559  0.92917381    -0.43800
N1011       N  0.65697922  0.87603059  0.89584554    -0.41100
N1012       N  0.54032085  0.84707181  0.08798890    -0.42500
H1013       H  0.63334661  0.85002474  0.05109364     0.13600
H1014       H  0.56503453  0.87449455  0.93440650     0.10100
H1015       H  0.51854929  0.89205303  0.03303771     0.11200
H1016       H  0.43447027  0.84990216  0.95072656     0.17000
C1017       C  0.07501002  0.85414034  0.00483093    -0.01200
C1018       C  0.05807903  0.87251220  0.01538477     0.07400
C1019       C  0.08175761  0.88876038  0.02454456    -0.07200
C1020       C  0.12193329  0.88725008  0.02151066     0.04800
C1021       C  0.13900960  0.86909203  0.00939419    -0.14400
C1022       C  0.11533273  0.85249462  0.00225421    -0.07700
C1023       C  0.01572902  0.87550741  0.01444300     0.05800
C1024       C  0.99496163  0.87673909  0.04914561    -0.08900
C1025       C  0.95456063  0.87858284  0.04901610     0.00700
C1026       C  0.93449129  0.87957103  0.01346386     0.00600
C1027       C  0.95586870  0.87918976  0.97886489    -0.12400
C1028       C  0.99601676  0.87710791  0.97910352     0.01100
C1029       C  0.93455876  0.87804088  0.08562907     0.40400
C1030       C  0.01640811  0.87633800  0.94269501     0.37000
C1031       C  0.05142546  0.83700119  0.99560523     0.36700
C1032       C  0.14499308  0.90455788  0.03116924     0.37500
N1033       N  0.91864417  0.87748182  0.11503685    -0.43300
N1034       N  0.03281055  0.87562306  0.91357763    -0.43800
N1035       N  0.16351532  0.91840092  0.03883918    -0.41100
N1036       N  0.03236490  0.82333712  0.98809016    -0.42500
H1037       H  0.12821478  0.83851289  0.99315187     0.13600
H1038       H  0.06872962  0.90282863  0.03296423     0.10100
H1039       H  0.01027060  0.87559558  0.07635058     0.11200
H1040       H  0.94107367  0.88005608  0.95134075     0.17000
C1041       C  0.37633489  0.77508015  0.97182818    -0.01200
C1042       C  0.36566984  0.76068231  0.99936992     0.07400
C1043       C  0.33482448  0.76472748  0.02460312    -0.07200
C1044       C  0.31503955  0.78307020  0.02313212     0.04800
C1045       C  0.32618042  0.79780347  0.99582620    -0.14400
C1046       C  0.35682055  0.79330123  0.97027209    -0.07700
C1047       C  0.38469653  0.74079979  0.99983326     0.05800
C1048       C  0.42177971  0.73867365  0.01575425    -0.08900
C1049       C  0.44153815  0.72033616  0.01393965     0.00700
C1050       C  0.42436711  0.70378291  0.99505926     0.00600
C1051       C  0.38708035  0.70620787  0.97922609    -0.12400
C1052       C  0.36728484  0.72433861  0.98171241     0.01100
C1053       C  0.47926482  0.71910842  0.03147886     0.40400
C1054       C  0.32917087  0.72580494  0.96499421     0.37000
C1055       C  0.40677137  0.77129051  0.94417468     0.36700
C1056       C  0.28350014  0.78613408  0.04980762     0.37500
N1057       N  0.50943482  0.71815985  0.04573665    -0.43300
N1058       N  0.29858474  0.72702337  0.95174450    -0.43800
N1059       N  0.25816480  0.78846490  0.07121030    -0.41100
N1060       N  0.43105651  0.76822042  0.92193835    -0.42500
H1061       H  0.36606597  0.80411446  0.94884101     0.13600
H1062       H  0.32606189  0.75344810  0.04534584     0.10100
H1063       H  0.43536002  0.75142495  0.02947647     0.11200
H1064       H  0.37274739  0.69377582  0.96519866     0.17000
C1065       C  0.25785616  0.97866832  0.03193606    -0.01200
C1066       C  0.25347181  0.98992318  0.99779937     0.07400
C1067       C  0.25934115  0.98068583  0.96195437    -0.07200
C1068       C  0.26907607  0.96041530  0.95976371     0.04800
C1069       C  0.27328656  0.94910669  0.99394617    -0.14400
C1070       C  0.26791351  0.95846392  0.02978580    -0.07700
C1071       C  0.24552299  0.01165868  0.99927668     0.05800
C1072       C  0.27391796  0.02418690  0.01472162    -0.08900
C1073       C  0.26813513  0.04476501  0.01739624     0.00700
C1074       C  0.23277548  0.05327615  0.00481058     0.00600
C1075       C  0.20450349  0.04063420  0.98875439    -0.12400
C1076       C  0.21068189  0.01999273  0.98576669     0.01100
C1077       C  0.29988155  0.05666599  0.03174684     0.40400
C1078       C  0.18073571  0.00764136  0.96927810     0.37000
C1079       C  0.25108110  0.98746187  0.06940194     0.36700
C1080       C  0.27592436  0.95172538  0.92223472     0.37500
N1081       N  0.32540977  0.06616727  0.04311167    -0.43300
N1082       N  0.15675106  0.99776972  0.95593719    -0.43800
N1083       N  0.28163648  0.94477418  0.89218501    -0.41100
N1084       N  0.24553768  0.99460258  0.09931468    -0.42500
H1085       H  0.27031615  0.94980043  0.05615405     0.13600
H1086       H  0.25677859  0.98941228  0.93568011     0.10100
H1087       H  0.30103868  0.01780386  0.02442446     0.11200
H1088       H  0.17742072  0.04684362  0.97862103     0.17000
C1089       C  0.83926275  0.23436205  0.52504935    -0.01200
C1090       C  0.87279340  0.23860492  0.50332685     0.07400
C1091       C  0.88719895  0.22420655  0.47792988    -0.07200
C1092       C  0.86865785  0.20583355  0.47329988     0.04800
C1093       C  0.83401642  0.20161875  0.49404147    -0.14400
C1094       C  0.82001101  0.21609689  0.52000711    -0.07700
C1095       C  0.89315884  0.25807047  0.50569020     0.05800
C1096       C  0.91157563  0.26364680  0.54013890    -0.08900
C1097       C  0.93132968  0.28188726  0.54281360     0.00700
C1098       C  0.93330815  0.29461106  0.51044402     0.00600
C1099       C  0.91592982  0.28874753  0.47574499    -0.12400
C1100       C  0.89560418  0.27076045  0.47323824     0.01100
C1101       C  0.94998833  0.28712628  0.57864634     0.40400
C1102       C  0.87591148  0.26608701  0.43763411     0.37000
C1103       C  0.82402234  0.24853356  0.55250915     0.36700
C1104       C  0.88719387  0.19155832  0.44807078     0.37500
N1105       N  0.96522067  0.29135292  0.60721146    -0.43300
N1106       N  0.85999986  0.26236530  0.40917729    -0.43800
N1107       N  0.90245305  0.18019298  0.42803510    -0.41100
N1108       N  0.81199564  0.25981780  0.57477256    -0.42500
H1109       H  0.79406662  0.21312763  0.53674300     0.13600
H1110       H  0.91349290  0.22733473  0.46178107     0.10100
H1111       H  0.91040939  0.25375685  0.56492409     0.11200
H1112       H  0.91658655  0.29872914  0.45105428     0.17000
C1113       C  0.75286153  0.11770023  0.19646484    -0.01200
C1114       C  0.73556103  0.13217686  0.22022147     0.07400
C1115       C  0.71082199  0.14641069  0.20388266    -0.07200
C1116       C  0.70290463  0.14628380  0.16414702     0.04800
C1117       C  0.72012140  0.13163424  0.14013602    -0.14400
C1118       C  0.74495624  0.11747122  0.15701749    -0.07700
C1119       C  0.74243270  0.13222164  0.26235502     0.05800
C1120       C  0.76692361  0.14666213  0.27840412    -0.08900
C1121       C  0.77577112  0.14638431  0.31787857     0.00700
C1122       C  0.76005328  0.13127162  0.34192495     0.00600
C1123       C  0.73498478  0.11704020  0.32554531    -0.12400
C1124       C  0.72603908  0.11746195  0.28625004     0.01100
C1125       C  0.79989226  0.16217517  0.33291132     0.40400
C1126       C  0.69964910  0.10272279  0.27099401     0.37000
C1127       C  0.77938377  0.10309620  0.21185619     0.36700
C1128       C  0.67796655  0.16166525  0.14902016     0.37500
N1129       N  0.81908465  0.17487076  0.34502627    -0.43300
N1130       N  0.67847091  0.09098790  0.25858340    -0.43800
N1131       N  0.65797628  0.17405422  0.13710935    -0.41100
N1132       N  0.80067487  0.09140781  0.22413192    -0.42500
H1133       H  0.75857435  0.10612293  0.13934322     0.13600
H1134       H  0.69761119  0.15758666  0.22226994     0.10100
H1135       H  0.77931469  0.15810584  0.25995045     0.11200
H1136       H  0.72231364  0.10544548  0.34343701     0.17000
C1137       C  0.77189920  0.11008292  0.70006628    -0.01200
C1138       C  0.75018403  0.12481419  0.71939622     0.07400
C1139       C  0.73736227  0.14151345  0.69876810    -0.07200
C1140       C  0.74573810  0.14385508  0.65956546     0.04800
C1141       C  0.76670607  0.12884877  0.63953599    -0.14400
C1142       C  0.77956065  0.11207853  0.66047218    -0.07700
C1143       C  0.74368157  0.12449918  0.76180018     0.05800
C1144       C  0.75883943  0.14029383  0.78342426    -0.08900
C1145       C  0.75200636  0.14184749  0.82301493     0.00700
C1146       C  0.72989278  0.12701128  0.84241672     0.00600
C1147       C  0.71474092  0.11107362  0.82049619    -0.12400
C1148       C  0.72110712  0.10983245  0.78050353     0.01100
C1149       C  0.76763916  0.15920307  0.84221250     0.40400
C1150       C  0.70299798  0.09386941  0.75910725     0.37000
C1151       C  0.78796662  0.09324584  0.72048394     0.36700
C1152       C  0.73315358  0.16217062  0.64150804     0.37500
N1153       N  0.78012446  0.17318938  0.85735244    -0.43300
N1154       N  0.68847276  0.08108813  0.74193607    -0.43800
N1155       N  0.72310689  0.17693265  0.62736143    -0.41100
N1156       N  0.80090608  0.07975344  0.73682196    -0.42500
H1157       H  0.79596644  0.10047167  0.64600999     0.13600
H1158       H  0.72129956  0.15309157  0.71377353     0.10100
H1159       H  0.77584175  0.15173348  0.76899244     0.11200
H1160       H  0.69744849  0.09962097  0.83445696     0.17000
C1161       C  0.57165874  0.14247231  0.46692414    -0.01200
C1162       C  0.55294057  0.14202258  0.50315565     0.07400
C1163       C  0.57509350  0.14369545  0.53692877    -0.07200
C1164       C  0.61543556  0.14507546  0.53508071     0.04800
C1165       C  0.63413702  0.14475039  0.49888487    -0.14400
C1166       C  0.61196587  0.14371681  0.46510530    -0.07700
C1167       C  0.51061972  0.13872362  0.50656400     0.05800
C1168       C  0.49443427  0.12115345  0.49140811    -0.08900
C1169       C  0.45463408  0.11747027  0.49393970     0.00700
C1170       C  0.43035772  0.13140420  0.51264071     0.00600
C1171       C  0.44685838  0.14874253  0.52858705    -0.12400
C1172       C  0.48647109  0.15256886  0.52540538     0.01100
C1173       C  0.43973543  0.09914626  0.47777700     0.40400
C1174       C  0.50137988  0.17119034  0.54027095     0.37000
C1175       C  0.55023187  0.14140706  0.43125760     0.36700
C1176       C  0.63703216  0.14499082  0.57069777     0.37500
N1177       N  0.42782548  0.08446612  0.46476853    -0.43300
N1178       N  0.51333178  0.18612496  0.55209993    -0.43800
N1179       N  0.65419342  0.14474738  0.59932280    -0.41100
N1180       N  0.53314406  0.14050483  0.40263039    -0.42500
H1181       H  0.62631758  0.14329071  0.43723560     0.13600
H1182       H  0.56090816  0.14309678  0.56486197     0.10100
H1183       H  0.51303105  0.11027491  0.47751264     0.11200
H1184       H  0.42853547  0.15975440  0.54245490     0.17000
C1185       C  0.98848602  0.13050728  0.45868714    -0.01200
C1186       C  0.00930849  0.12466966  0.49164552     0.07400
C1187       C  0.98937469  0.11605102  0.52280766    -0.07200
C1188       C  0.94913161  0.11353651  0.52193189     0.04800
C1189       C  0.92777527  0.12004731  0.48936872    -0.14400
C1190       C  0.94828070  0.12823262  0.45782175    -0.07700
C1191       C  0.05196988  0.12711491  0.49391767     0.05800
C1192       C  0.06831323  0.14633777  0.49240760    -0.08900
C1193       C  0.10848762  0.14912709  0.49487471     0.00700
C1194       C  0.13301110  0.13239947  0.49915215     0.00600
C1195       C  0.11633877  0.11321451  0.50036608    -0.12400
C1196       C  0.07643514  0.11046795  0.49776951     0.01100
C1197       C  0.12339622  0.16926886  0.49427062     0.40400
C1198       C  0.06138066  0.09034143  0.49834784     0.37000
C1199       C  0.00786596  0.13854248  0.42510798     0.36700
C1200       C  0.93095098  0.10449219  0.55518455     0.37500
N1201       N  0.13525105  0.18543764  0.49380646    -0.43300
N1202       N  0.04937864  0.07420596  0.49888214    -0.43800
N1203       N  0.91659306  0.09716303  0.58188263    -0.41100
N1204       N  0.02351337  0.14492756  0.39822972    -0.42500
H1205       H  0.93288697  0.13318010  0.43230947     0.13600
H1206       H  0.00541330  0.11139093  0.54815484     0.10100
H1207       H  0.04951948  0.15921986  0.48970410     0.11200
H1208       H  0.13461419  0.10013581  0.50309393     0.17000
C1209       C  0.41190037  0.26489992  0.51559812    -0.01200
C1210       C  0.37260339  0.26305501  0.50511595     0.07400
C1211       C  0.35313679  0.27973905  0.49071235    -0.07200
C1212       C  0.37214823  0.29794704  0.48552552     0.04800
C1213       C  0.41183774  0.29988391  0.49537815    -0.14400
C1214       C  0.43106848  0.28326362  0.51096091    -0.07700
C1215       C  0.35116029  0.24384477  0.50808045     0.05800
C1216       C  0.34535207  0.23510361  0.54443024    -0.08900
C1217       C  0.32581726  0.21684851  0.54808018     0.00700
C1218       C  0.31179355  0.20695385  0.51483753     0.00600
C1219       C  0.31595423  0.21623928  0.47870909    -0.12400
C1220       C  0.33547561  0.23448692  0.47509812     0.01100
C1221       C  0.32004248  0.20872914  0.58629860     0.40400
C1222       C  0.34049728  0.24292652  0.43703137     0.37000
C1223       C  0.43341765  0.24800660  0.52991996     0.36700
C1224       C  0.34946549  0.31441582  0.47096462     0.37500
N1225       N  0.31520195  0.20221433  0.61688332    -0.43300
N1226       N  0.34451015  0.24982084  0.40664362    -0.43800
N1227       N  0.33110600  0.32748380  0.45914069    -0.41100
N1228       N  0.45065449  0.23444272  0.54132668    -0.42500
H1229       H  0.46131921  0.28450527  0.51889449     0.13600
H1230       H  0.32273656  0.27846959  0.48328011     0.10100
H1231       H  0.35624467  0.24255153  0.57000468     0.11200
H1232       H  0.30563657  0.20876213  0.45293523     0.17000
C1233       C  0.27090278  0.11660356  0.30168776    -0.01200
C1234       C  0.26333438  0.13438425  0.28124719     0.07400
C1235       C  0.26313746  0.15261063  0.30115819    -0.07200
C1236       C  0.26997151  0.15329307  0.34103206     0.04800
C1237       C  0.27692038  0.13540419  0.36169805    -0.14400
C1238       C  0.27796999  0.11725911  0.34142305    -0.07700
C1239       C  0.25467146  0.13412550  0.23926663     0.05800
C1240       C  0.21734983  0.13902771  0.22679645    -0.08900
C1241       C  0.20724308  0.13778486  0.18767193     0.00700
C1242       C  0.23499921  0.13149753  0.16002953     0.00600
C1243       C  0.27266348  0.12705362  0.17281467    -0.12400
C1244       C  0.28265391  0.12842943  0.21184052     0.01100
C1245       C  0.16795881  0.14261229  0.17728187     0.40400
C1246       C  0.32196880  0.12416112  0.22306238     0.37000
C1247       C  0.26990482  0.09740159  0.28278943     0.36700
C1248       C  0.27063857  0.17257490  0.35970859     0.37500
N1249       N  0.13643032  0.14653691  0.16919150    -0.43300
N1250       N  0.35343344  0.12072176  0.23215300    -0.43800
N1251       N  0.27130339  0.18803647  0.37460689    -0.41100
N1252       N  0.26907994  0.08203353  0.26756867    -0.42500
H1253       H  0.28286250  0.10342838  0.35688219     0.13600
H1254       H  0.25764443  0.16631461  0.28547256     0.10100
H1255       H  0.19579622  0.14347254  0.24788956     0.11200
H1256       H  0.29468906  0.12262332  0.15223617     0.17000
C1257       C  0.28004373  0.13645101  0.72503363    -0.01200
C1258       C  0.24304366  0.13159360  0.73931620     0.07400
C1259       C  0.21362038  0.12655897  0.71342845    -0.07200
C1260       C  0.22052398  0.12616884  0.67360284     0.04800
C1261       C  0.25796919  0.13057208  0.65901417    -0.14400
C1262       C  0.28724602  0.13586652  0.68522855    -0.07700
C1263       C  0.23432247  0.13169228  0.78121345     0.05800
C1264       C  0.22853982  0.14997036  0.80000017    -0.08900
C1265       C  0.22046929  0.15064035  0.83964292     0.00700
C1266       C  0.21829427  0.13270496  0.86119020     0.00600
C1267       C  0.22309297  0.11440405  0.84194657    -0.12400
C1268       C  0.23115369  0.11378591  0.80233730     0.01100
C1269       C  0.21339258  0.16986300  0.85714349     0.40400
C1270       C  0.23722019  0.09465607  0.78413504     0.37000
C1271       C  0.31113676  0.14181529  0.75076140     0.36700
C1272       C  0.18809534  0.12203806  0.64861613     0.37500
N1273       N  0.20752351  0.18527172  0.87106428    -0.43300
N1274       N  0.24215575  0.07933397  0.76952759    -0.43800
N1275       N  0.16197029  0.11883309  0.62872575    -0.41100
N1276       N  0.33606544  0.14614525  0.77136078    -0.42500
H1277       H  0.31603607  0.13939201  0.67467430     0.13600
H1278       H  0.18494960  0.12311952  0.72446244     0.10100
H1279       H  0.23027537  0.16374280  0.78356507     0.11200
H1280       H  0.22180014  0.10053983  0.85811698     0.17000
C1281       C  0.64016645  0.76996475  0.52840457    -0.01200
C1282       C  0.63553082  0.76029052  0.49263935     0.07400
C1283       C  0.65345678  0.76836240  0.45975575    -0.07200
C1284       C  0.67499298  0.78618389  0.46196458     0.04800
C1285       C  0.67861563  0.79630791  0.49772204    -0.14400
C1286       C  0.66150025  0.78767857  0.53069251    -0.07700
C1287       C  0.61504452  0.74077620  0.49035346     0.05800
C1288       C  0.57624832  0.73978529  0.47839547    -0.08900
C1289       C  0.55548482  0.72165020  0.48002414     0.00700
C1290       C  0.57354328  0.70425237  0.49460506     0.00600
C1291       C  0.61274007  0.70542383  0.50539144    -0.12400
C1292       C  0.63340238  0.72329586  0.50313919     0.01100
C1293       C  0.51570993  0.72148712  0.46753528     0.40400
C1294       C  0.67361321  0.72339695  0.51428801     0.37000
C1295       C  0.62284521  0.76203802  0.56317544     0.36700
C1296       C  0.69184817  0.79396791  0.42688633     0.37500
N1297       N  0.48386406  0.72137413  0.45734830    -0.43300
N1298       N  0.70586230  0.72353719  0.52308280    -0.43800
N1299       N  0.70546212  0.80013131  0.39874015    -0.41100
N1300       N  0.60899092  0.75561550  0.59097815    -0.42500
H1301       H  0.66388509  0.79509845  0.55841307     0.13600
H1302       H  0.65067173  0.76068887  0.43233908     0.10100
H1303       H  0.56201139  0.75325458  0.46849313     0.11200
H1304       H  0.62771947  0.69219908  0.51539856     0.17000
C1305       C  0.74055219  0.85648130  0.29490506    -0.01200
C1306       C  0.72918605  0.87284430  0.27219152     0.07400
C1307       C  0.71053974  0.88904582  0.28981018    -0.07200
C1308       C  0.70359577  0.88923076  0.32982484     0.04800
C1309       C  0.71506870  0.87274133  0.35286119    -0.14400
C1310       C  0.73317520  0.85645103  0.33458569    -0.07700
C1311       C  0.73808349  0.87338960  0.23024976     0.05800
C1312       C  0.71393101  0.86317486  0.20457517    -0.08900
C1313       C  0.72314816  0.86184372  0.16520685     0.00700
C1314       C  0.75754055  0.87081601  0.15081896     0.00600
C1315       C  0.78122174  0.88138027  0.17680330    -0.12400
C1316       C  0.77185442  0.88263533  0.21613852     0.01100
C1317       C  0.69619382  0.85149104  0.14048397     0.40400
C1318       C  0.79783814  0.89299733  0.24182645     0.37000
C1319       C  0.76128175  0.83987472  0.27826776     0.36700
C1320       C  0.68651144  0.90693614  0.34637544     0.37500
N1321       N  0.67443902  0.84316738  0.12088525    -0.43300
N1322       N  0.81860449  0.90123991  0.26257675    -0.43800
N1323       N  0.67303025  0.92120865  0.35953469    -0.41100
N1324       N  0.77818407  0.82666224  0.26494412    -0.42500
H1325       H  0.74238278  0.84365672  0.35144944     0.13600
H1326       H  0.70216499  0.90177728  0.27232288     0.10100
H1327       H  0.68793550  0.85602301  0.21548554     0.11200
H1328       H  0.80756784  0.88842378  0.16655443     0.17000
C1329       C  0.79129489  0.85582077  0.79098689    -0.01200
C1330       C  0.77022064  0.87084829  0.77186453     0.07400
C1331       C  0.75643819  0.88715305  0.79304706    -0.07200
C1332       C  0.76223014  0.88843749  0.83294641     0.04800
C1333       C  0.78230147  0.87305570  0.85270144    -0.14400
C1334       C  0.79731352  0.85705115  0.83102153    -0.07700
C1335       C  0.76134526  0.86988088  0.72991526     0.05800
C1336       C  0.73285704  0.85660897  0.71683786    -0.08900
C1337       C  0.72107273  0.85652090  0.67803552     0.00700
C1338       C  0.73808501  0.86999691  0.65124986     0.00600
C1339       C  0.76725927  0.88299437  0.66471094    -0.12400
C1340       C  0.77879358  0.88305619  0.70343953     0.01100
C1341       C  0.69144975  0.84244893  0.66701447     0.40400
C1342       C  0.80876666  0.89674312  0.71540079     0.37000
C1343       C  0.80711963  0.83908945  0.77004873     0.36700
C1344       C  0.74749166  0.90589918  0.85250366     0.37500
N1345       N  0.66766919  0.83112485  0.65843238    -0.43300
N1346       N  0.83281148  0.90769013  0.72499346    -0.43800
N1347       N  0.73560886  0.91989055  0.86809793    -0.41100
N1348       N  0.81989981  0.82569890  0.75324915    -0.42500
H1349       H  0.81294029  0.84519230  0.84545591     0.13600
H1350       H  0.74060663  0.89885116  0.77829979     0.10100
H1351       H  0.71922381  0.84651583  0.73728329     0.11200
H1352       H  0.78116806  0.89335846  0.64500009     0.17000
C1353       C  0.75329911  0.97862624  0.51631272    -0.01200
C1354       C  0.72534447  0.99121764  0.49964326     0.07400
C1355       C  0.69195650  0.98272854  0.48354196    -0.07200
C1356       C  0.68589789  0.96197750  0.48427347     0.04800
C1357       C  0.71380728  0.94928262  0.50142997    -0.14400
C1358       C  0.74720640  0.95802264  0.51740975    -0.07700
C1359       C  0.73127323  0.01319551  0.49814501     0.05800
C1360       C  0.73533740  0.02262053  0.46217636    -0.08900
C1361       C  0.74439391  0.04299476  0.45980159     0.00700
C1362       C  0.75077714  0.05408391  0.49389657     0.00600
C1363       C  0.74570794  0.04476304  0.52982092    -0.12400
C1364       C  0.73500486  0.02463351  0.53214866     0.01100
C1365       C  0.74781011  0.05207971  0.42211555     0.40400
C1366       C  0.72659695  0.01616258  0.56958725     0.37000
C1367       C  0.78924846  0.98643656  0.53124576     0.36700
C1368       C  0.65072026  0.95432356  0.46746454     0.37500
N1369       N  0.75030570  0.05946600  0.39199817    -0.43300
N1370       N  0.71946353  0.00934498  0.59947179    -0.43800
N1371       N  0.62250065  0.94823691  0.45393439    -0.41100
N1372       N  0.81799185  0.99273804  0.54321492    -0.42500
H1373       H  0.76943397  0.94869628  0.53012492     0.13600
H1374       H  0.67047255  0.99238960  0.47046210     0.10100
H1375       H  0.73199833  0.01396564  0.43593098     0.11200
H1376       H  0.74893385  0.05340022  0.55611203     0.17000
C1377       C  0.91799354  0.89141875  0.50640582    -0.01200
C1378       C  0.94153400  0.87751128  0.48708682     0.07400
C1379       C  0.92402600  0.86130853  0.46812781    -0.07200
C1380       C  0.88369239  0.85865067  0.46873675     0.04800
C1381       C  0.86005400  0.87216436  0.48956679    -0.14400
C1382       C  0.87800941  0.88859087  0.50776353    -0.07700
C1383       C  0.98443705  0.87942758  0.48749160     0.05800
C1384       C  0.00375317  0.87944464  0.52311425    -0.08900
C1385       C  0.04409591  0.88101386  0.52507083     0.00700
C1386       C  0.06610032  0.88238484  0.49069537     0.00600
C1387       C  0.04655900  0.88265174  0.45507902    -0.12400
C1388       C  0.00620833  0.88128352  0.45323761     0.01100
C1389       C  0.06198143  0.88016233  0.56265835     0.40400
C1390       C  0.98781469  0.88212214  0.41590108     0.37000
C1391       C  0.93411917  0.90902619  0.52435803     0.36700
C1392       C  0.86772897  0.84214690  0.44723846     0.37500
N1393       N  0.07626796  0.87948904  0.59280823    -0.43300
N1394       N  0.97311670  0.88280917  0.38595559    -0.43800
N1395       N  0.85510664  0.82897312  0.42968351    -0.41100
N1396       N  0.94707382  0.92313934  0.53864328    -0.42500
H1397       H  0.86081436  0.89950644  0.52324583     0.13600
H1398       H  0.94201915  0.85061049  0.45295165     0.10100
H1399       H  0.98717027  0.87790396  0.54958560     0.11200
H1400       H  0.06291520  0.88375643  0.42839489     0.17000
C1401       C  0.49727606  0.88143645  0.49505021    -0.01200
C1402       C  0.48148110  0.86205005  0.49859433     0.07400
C1403       C  0.50613714  0.84591265  0.50565164    -0.07200
C1404       C  0.54601334  0.84878909  0.50933560     0.04800
C1405       C  0.56194368  0.86818493  0.50593442    -0.14400
C1406       C  0.53729322  0.88433177  0.49844101    -0.07700
C1407       C  0.43934785  0.85830680  0.49476005     0.05800
C1408       C  0.42135540  0.86210376  0.45927831    -0.08900
C1409       C  0.38118943  0.86058834  0.45557125     0.00700
C1410       C  0.35836472  0.85533382  0.48790271     0.00600
C1411       C  0.37663366  0.84997279  0.52248963    -0.12400
C1412       C  0.41686852  0.85143462  0.52614803     0.01100
C1413       C  0.36397727  0.86452084  0.41836728     0.40400
C1414       C  0.43417881  0.84697756  0.56302856     0.37000
C1415       C  0.47289531  0.89860245  0.48871583     0.36700
C1416       C  0.57002321  0.83137145  0.51430252     0.37500
N1417       N  0.35008823  0.86752887  0.38856409    -0.43300
N1418       N  0.44813234  0.84337226  0.59254203    -0.43800
N1419       N  0.58891828  0.81727064  0.51802087    -0.41100
N1420       N  0.45330641  0.91234680  0.48368895    -0.42500
H1421       H  0.54929253  0.89922675  0.49552549     0.13600
H1422       H  0.49417912  0.83096742  0.50775651     0.10100
H1423       H  0.43869191  0.86670509  0.43469638     0.11200
H1424       H  0.35931841  0.84589870  0.54743224     0.17000
C1425       C  0.15777755  0.76421250  0.50880473    -0.01200
C1426       C  0.11792139  0.76246588  0.50019070     0.07400
C1427       C  0.09760928  0.77966894  0.48931024    -0.07200
C1428       C  0.11625422  0.79819112  0.48590373     0.04800
C1429       C  0.15640044  0.79991038  0.49374030    -0.14400
C1430       C  0.17648614  0.78279515  0.50575386    -0.07700
C1431       C  0.09690409  0.74293139  0.50271114     0.05800
C1432       C  0.09734534  0.73222414  0.53754523    -0.08900
C1433       C  0.08038902  0.71325074  0.54045766     0.00700
C1434       C  0.06174423  0.70461493  0.50808740     0.00600
C1435       C  0.05930005  0.71586421  0.47390869    -0.12400
C1436       C  0.07677156  0.73475074  0.47090497     0.01100
C1437       C  0.08275573  0.70303921  0.57711989     0.40400
C1438       C  0.07519401  0.74496791  0.43423373     0.37000
C1439       C  0.18040114  0.74705736  0.51991335     0.36700
C1440       C  0.09286036  0.81527070  0.47580549     0.37500
N1441       N  0.08480661  0.69484305  0.60646477    -0.43300
N1442       N  0.07379660  0.75317549  0.40486582    -0.43800
N1443       N  0.07396667  0.82889530  0.46776313    -0.41100
N1444       N  0.19844994  0.73330322  0.52897000    -0.42500
H1445       H  0.20711900  0.78384661  0.51215630     0.13600
H1446       H  0.06680061  0.77864828  0.48370562     0.10100
H1447       H  0.11161747  0.73861462  0.56252717     0.11200
H1448       H  0.04529806  0.70949976  0.44875642     0.17000
C1449       C  0.22357601  0.87679961  0.19174371    -0.01200
C1450       C  0.25298772  0.87726809  0.21981787     0.07400
C1451       C  0.29185194  0.87669750  0.20797702    -0.07200
C1452       C  0.30160699  0.87536807  0.16872920     0.04800
C1453       C  0.27210088  0.87454125  0.14075455    -0.14400
C1454       C  0.23330343  0.87533595  0.15264271    -0.07700
C1455       C  0.24369326  0.87717558  0.26168143     0.05800
C1456       C  0.22589422  0.86024754  0.27766464    -0.08900
C1457       C  0.21775373  0.85912635  0.31724368     0.00700
C1458       C  0.22766247  0.87523833  0.34176884     0.00600
C1459       C  0.24511622  0.89228316  0.32543571    -0.12400
C1460       C  0.25297154  0.89339456  0.28580681     0.01100
C1461       C  0.20088582  0.84088775  0.33185691     0.40400
C1462       C  0.26978378  0.91147198  0.27039268     0.37000
C1463       C  0.18326681  0.87807878  0.20238662     0.36700
C1464       C  0.34182091  0.87366604  0.15802408     0.37500
N1465       N  0.18740812  0.82620877  0.34334312    -0.43300
N1466       N  0.28309672  0.92599787  0.25802636    -0.43800
N1467       N  0.37402932  0.87213949  0.14941978    -0.41100
N1468       N  0.15097032  0.87914812  0.21091850    -0.42500
H1469       H  0.21046726  0.87496398  0.13119702     0.13600
H1470       H  0.31456088  0.87680268  0.22954571     0.10100
H1471       H  0.21891994  0.84769404  0.25913416     0.11200
H1472       H  0.25255117  0.90487137  0.34367451     0.17000
C1473       C  0.23158846  0.88639785  0.70221978    -0.01200
C1474       C  0.24689340  0.86942049  0.72082797     0.07400
C1475       C  0.25430795  0.85226000  0.69899029    -0.07200
C1476       C  0.24674526  0.85170183  0.65926664     0.04800
C1477       C  0.23076284  0.86863228  0.64035931    -0.14400
C1478       C  0.22348423  0.88585229  0.66253626    -0.07700
C1479       C  0.25400442  0.86905725  0.76325946     0.05800
C1480       C  0.22255097  0.87139383  0.78846719    -0.08900
C1481       C  0.22771037  0.87141595  0.82856689     0.00700
C1482       C  0.26527644  0.86941980  0.84431010     0.00600
C1483       C  0.29655682  0.86636199  0.81900731    -0.12400
C1484       C  0.29121821  0.86605612  0.77888650     0.01100
C1485       C  0.19366996  0.87260876  0.85269754     0.40400
C1486       C  0.32451541  0.86302064  0.75440238     0.37000
C1487       C  0.22501696  0.90473016  0.72315016     0.36700
C1488       C  0.25536694  0.83334538  0.63918795     0.37500
N1489       N  0.16633405  0.87339666  0.87196854    -0.43300
N1490       N  0.35126624  0.86044353  0.73492105    -0.43800
N1491       N  0.26249863  0.81861702  0.62324850    -0.41100
N1492       N  0.21993663  0.91938472  0.74009178    -0.42500
H1493       H  0.21193335  0.89912465  0.64876943     0.13600
H1494       H  0.26580800  0.83909252  0.71323110     0.10100
H1495       H  0.19366965  0.87301656  0.77666556     0.11200
H1496       H  0.32549160  0.86456031  0.83054170     0.17000
C1497       C  0.28646178  0.97536680  0.49841045    -0.01200
C1498       C  0.25702501  0.98965046  0.50422973     0.07400
C1499       C  0.21863880  0.98296195  0.50809937    -0.07200
C1500       C  0.20940251  0.96255185  0.50703989     0.04800
C1501       C  0.23887566  0.94825098  0.50112599    -0.14400
C1502       C  0.27717676  0.95499645  0.49661137    -0.07700
C1503       C  0.26543145  0.01157066  0.50606481     0.05800
C1504       C  0.28498384  0.02094567  0.47534437    -0.08900
C1505       C  0.29186196  0.04163555  0.47531445     0.00700
C1506       C  0.27804276  0.05357648  0.50614481     0.00600
C1507       C  0.25936079  0.04401715  0.53724938    -0.12400
C1508       C  0.25325281  0.02335134  0.53759371     0.01100
C1509       C  0.31225030  0.05009308  0.44275512     0.40400
C1510       C  0.23473369  0.01461116  0.57098940     0.37000
C1511       C  0.32658742  0.98113794  0.49525954     0.36700
C1512       C  0.16929397  0.95685801  0.51079274     0.37500
N1513       N  0.32881885  0.05678642  0.41671099    -0.43300
N1514       N  0.21980183  0.00767172  0.59775761    -0.43800
N1515       N  0.13710040  0.95237824  0.51384102    -0.41100
N1516       N  0.35874300  0.98575336  0.49262822    -0.42500
H1517       H  0.30023825  0.94424153  0.49230514     0.13600
H1518       H  0.19561883  0.99380320  0.51177201     0.10100
H1519       H  0.29436126  0.01208985  0.45084247     0.11200
H1520       H  0.24917920  0.05274468  0.56160445     0.17000
loop_ 
_geom_bond_atom_site_label_1 
_geom_bond_atom_site_label_2 
_geom_bond_distance 
_geom_bond_site_symmetry_2 
_ccdc_geom_bond_type 
Zn1           O5   1.962       .  S
Zn1           O6   2.047       .  S
Zn1          O10   2.052       .  S
Zn1          O17   2.042       .  S
Zn2           O5   1.938       .  S
Zn2           O7   1.988       .  S
Zn2           O9   2.015       .  S
Zn2          O13   2.010       .  S
Zn3           O5   1.962       .  S
Zn3           O8   2.010       .  S
Zn3          O11   2.037       .  S
Zn3          O14   2.055       .  S
Zn4           O5   1.944       .  S
Zn4          O12   2.005       .  S
Zn4          O15   2.027       .  S
Zn4          O16   1.992       .  S
O6           C18   1.277       .  A
O7           C19   1.272       .  A
O8           C20   1.272       .  A
O9           C18   1.274       .  A
O10          C20   1.279       .  A
O11          C19   1.277       .  A
O12          C21   1.272       .  A
O13          C22   1.272       .  A
O14          C21   1.278       .  A
O15          C22   1.274       .  A
O16          C23   1.273       .  A
O17          C23   1.279       .  A
C18        C1501   1.491       .  S
C19        C1410   1.476       .  S
C20        C1477   1.499       .  S
C21        C1429   1.493       .  S
C22        C1458   1.488       .  S
C23        C1386   1.487       .  S
Zn24         O28   1.969       .  S
Zn24         O29   2.007       .  S
Zn24         O33   2.059       .  S
Zn24         O40   2.062       .  S
Zn25         O28   1.968       .  S
Zn25         O30   2.029       .  S
Zn25         O32   2.037       .  S
Zn25         O36   2.037       .  S
Zn26         O28   1.950       .  S
Zn26         O31   1.991       .  S
Zn26         O34   2.014       .  S
Zn26         O37   2.048       .  S
Zn27         O28   1.928       .  S
Zn27         O35   2.009       .  S
Zn27         O38   1.997       .  S
Zn27         O39   1.981       .  S
O29          C41   1.274       .  A
O30          C42   1.276       .  A
O31          C43   1.271       .  A
O32          C41   1.275       .  A
O33          C43   1.278       .  A
O34          C42   1.275       .  A
O35          C44   1.273       .  A
O36          C45   1.275       .  A
O37          C44   1.276       .  A
O38          C45   1.273       .  A
O39          C46   1.271       .  A
O40          C46   1.279       .  A
C41        C1309   1.494       .  S
C42        C1405   1.479       .  S
C43        C1285   1.494       .  S
C44        C1338   1.500       .  S
C45        C1357   1.494       .  S
C46        C1381   1.497       .  S
Zn47         O51   1.947       .  S
Zn47         O52   2.002       .  S
Zn47         O56   2.027       .  S
Zn47         O63   1.994       .  S
Zn48         O51   1.961       .  S
Zn48         O53   2.045       .  S
Zn48         O55   2.023       .  S
Zn48         O59   2.029       .  S
Zn49         O51   1.928       .  S
Zn49         O54   2.003       .  S
Zn49         O57   2.003       .  S
Zn49         O60   1.980       .  S
Zn50         O51   1.968       .  S
Zn50         O58   2.047       .  S
Zn50         O61   2.009       .  S
Zn50         O62   2.038       .  S
O52          C64   1.274       .  A
O53          C65   1.276       .  A
O54          C66   1.271       .  A
O55          C64   1.276       .  A
O56          C66   1.275       .  A
O57          C65   1.273       .  A
O58          C67   1.278       .  A
O59          C68   1.276       .  A
O60          C67   1.271       .  A
O61          C68   1.273       .  A
O62          C69   1.276       .  A
O63          C69   1.270       .  A
C64        C1170   1.482       .  S
C65        C1506   1.495       .  S
C66        C1261   1.488       .  S
C67        C1194   1.487       .  S
C68        C1237   1.484       .  S
C69        C1218   1.483       .  S
Zn70         O74   1.933       .  S
Zn70         O75   1.981       .  S
Zn70         O79   1.996       .  S
Zn70         O86   1.995       .  S
Zn71         O74   1.959       .  S
Zn71         O76   1.996       .  S
Zn71         O78   2.031       .  S
Zn71         O82   2.040       .  S
Zn72         O74   1.959       .  S
Zn72         O77   2.036       .  S
Zn72         O80   2.029       .  S
Zn72         O83   2.041       .  S
Zn73         O74   1.939       .  S
Zn73         O81   1.998       .  S
Zn73         O84   1.988       .  S
Zn73         O85   2.021       .  S
O75          C87   1.270       .  A
O76          C88   1.270       .  A
O77          C89   1.276       .  A
O78          C87   1.276       .  A
O79          C89   1.271       .  A
O80          C88   1.275       .  A
O81          C90   1.274       .  A
O82          C91   1.277       .  A
O83          C90   1.277       .  A
O84          C91   1.269       .  A
O85          C92   1.273       .  A
O86          C92   1.271       .  A
C87        C1165   1.470       .  S
C88        C1141   1.493       .  S
C89        C1362   1.477       .  S
C90        C1189   1.495       .  S
C91        C1093   1.493       .  S
C92        C1122   1.487       .  S
Zn93         O97   1.932       .  S
Zn93         O98   2.028       .  S
Zn93        O102   1.987       .  S
Zn93        O109   1.996       .  S
Zn94         O97   1.929       .  S
Zn94         O99   1.981       .  S
Zn94        O101   2.010       .  S
Zn94        O105   1.995       .  S
Zn95         O97   1.967   1_554  S
Zn95        O100   2.060       .  S
Zn95        O103   2.042       .  S
Zn95        O106   2.007       .  S
Zn96         O97   1.964   1_554  S
Zn96        O104   2.028       .  S
Zn96        O107   2.041       .  S
Zn96        O108   2.043       .  S
O98         C110   1.275       .  A
O99         C111   1.270   1_556  A
O100        C112   1.278   1_554  A
O101        C110   1.272       .  A
O102        C112   1.271       .  A
O103        C111   1.277       .  A
O104        C113   1.275       .  A
O105        C114   1.271       .  A
O106        C113   1.273       .  A
O107        C114   1.277   1_554  A
O108        C115   1.277   1_554  A
O109        C115   1.274       .  A
C110       C1482   1.489       .  S
C111       C1021   1.476       .  S
C112       C1045   1.499       .  S
C113       C1453   1.476       .  S
C114       C1069   1.478       .  S
C115       C1002   1.492       .  S
Zn116       O120   1.930   1_556  S
Zn116       O121   1.978       .  S
Zn116       O125   1.997       .  S
Zn116       O132   1.999       .  S
Zn117       O120   1.967       .  S
Zn117       O122   2.064       .  S
Zn117       O124   2.048       .  S
Zn117       O128   2.023       .  S
Zn118       O120   1.943   1_556  S
Zn118       O123   2.044       .  S
Zn118       O126   1.995       .  S
Zn118       O129   1.994       .  S
Zn119       O120   1.963       .  S
Zn119       O127   2.037       .  S
Zn119       O130   2.033       .  S
Zn119       O131   2.035       .  S
O121        C133   1.271       .  A
O122        C134   1.279       .  A
O123        C135   1.275       .  A
O124        C133   1.278   1_554  A
O125        C135   1.270       .  A
O126        C134   1.273   1_556  A
O127        C136   1.277       .  A
O128        C137   1.274       .  A
O129        C136   1.274   1_556  A
O130        C137   1.276       .  A
O131        C138   1.275       .  A
O132        C138   1.272   1_556  A
C133        C997   1.478       .  S
C134        C949   1.501       .  S
C135       C1333   1.493       .  S
C136       C1026   1.485       .  S
C137       C1314   1.495       .  S
C138        C978   1.482       .  S
Zn139       O143   1.957   1_556  S
Zn139       O144   2.028       .  S
Zn139       O148   2.029       .  S
Zn139       O155   2.030       .  S
Zn140       O143   1.968   1_556  S
Zn140       O145   2.033       .  S
Zn140       O147   2.007       .  S
Zn140       O151   2.030       .  S
Zn141       O143   1.940       .  S
Zn141       O146   2.005       .  S
Zn141       O149   1.971       .  S
Zn141       O152   2.021       .  S
Zn142       O143   1.930       .  S
Zn142       O150   2.012       .  S
Zn142       O153   1.985       .  S
Zn142       O154   1.993       .  S
O144        C156   1.275       .  A
O145        C157   1.275   1_556  A
O146        C158   1.273       .  A
O147        C156   1.272       .  A
O148        C158   1.277   1_556  A
O149        C157   1.270       .  A
O150        C159   1.273       .  A
O151        C160   1.275   1_556  A
O152        C159   1.272       .  A
O153        C160   1.270       .  A
O154        C161   1.272       .  A
O155        C161   1.276   1_556  A
C156       C1266   1.483       .  S
C157        C930   1.489       .  S
C158        C877   1.490       .  S
C159       C1242   1.493       .  S
C160        C901   1.472   1_554  S
C161       C1074   1.488       .  S
Zn162       O166   1.924   1_554  S
Zn162       O167   1.971       .  S
Zn162       O171   1.987       .  S
Zn162       O178   1.984       .  S
Zn163       O166   1.970       .  S
Zn163       O168   2.004       .  S
Zn163       O170   2.057       .  S
Zn163       O174   2.061       .  S
Zn164       O166   1.976       .  S
Zn164       O169   2.051       .  S
Zn164       O172   2.034       .  S
Zn164       O175   2.039       .  S
Zn165       O166   1.941   1_554  S
Zn165       O173   1.995       .  S
Zn165       O176   1.987       .  S
Zn165       O177   2.034       .  S
O167        C179   1.268   1_554  A
O168        C180   1.273       .  A
O169        C181   1.277       .  A
O170        C179   1.277       .  A
O171        C181   1.270   1_554  A
O172        C180   1.277       .  A
O173        C182   1.273   1_554  A
O174        C183   1.277       .  A
O175        C182   1.276       .  A
O176        C183   1.271   1_554  A
O177        C184   1.274       .  A
O178        C184   1.270       .  A
C179        C882   1.475       .  S
C180       C1146   1.495       .  S
C181        C973   1.489       .  S
C182        C906   1.478       .  S
C183        C853   1.495       .  S
C184       C1117   1.488       .  S
Zn185       O189   1.921       .  S
Zn185       O190   1.968       .  S
Zn185       O194   1.996       .  S
Zn185       O201   2.006       .  S
Zn186       O189   1.969       .  S
Zn186       O191   2.019       .  S
Zn186       O193   2.055       .  S
Zn186       O197   2.049       .  S
Zn187       O189   1.952       .  S
Zn187       O192   2.028       .  S
Zn187       O195   2.022       .  S
Zn187       O198   2.019       .  S
Zn188       O189   1.936       .  S
Zn188       O196   1.997       .  S
Zn188       O199   1.985       .  S
Zn188       O200   2.020       .  S
O190        C202   1.271       .  A
O191        C203   1.274       .  A
O192        C204   1.275       .  A
O193        C202   1.279       .  A
O194        C204   1.272       .  A
O195        C203   1.274       .  A
O196        C205   1.272       .  A
O197        C206   1.278       .  A
O198        C205   1.275       .  A
O199        C206   1.270       .  A
O200        C207   1.273       .  A
O201        C207   1.272       .  A
C202        C733   1.493       .  S
C203        C810   1.482       .  S
C204        C829   1.483       .  S
C205        C757   1.476       .  S
C206       C1213   1.488       .  S
C207        C781   1.486       .  S
Zn208       O212   1.945       .  S
Zn208       O213   2.018       .  S
Zn208       O217   1.998       .  S
Zn208       O224   2.001       .  S
Zn209       O212   1.922   1_455  S
Zn209       O214   1.977       .  S
Zn209       O216   2.001       .  S
Zn209       O220   1.980   1_455  S
Zn210       O212   1.952       .  S
Zn210       O215   2.015       .  S
Zn210       O218   2.028   1_655  S
Zn210       O221   1.988       .  S
Zn211       O212   1.962       .  S
Zn211       O219   2.038       .  S
Zn211       O222   2.043       .  S
Zn211       O223   2.027       .  S
O213        C225   1.273       .  A
O214        C226   1.269       .  A
O215        C227   1.273       .  A
O216        C225   1.272   1_455  A
O217        C227   1.271       .  A
O218        C226   1.274       .  A
O219        C228   1.275       .  A
O220        C229   1.270       .  A
O221        C228   1.271       .  A
O222        C229   1.277       .  A
O223        C230   1.277       .  A
O224        C230   1.273       .  A
C225        C685   1.488       .  S
C226        C762   1.473       .  S
C227       C1098   1.470       .  S
C228        C666   1.493       .  S
C229        C709   1.486       .  S
C230        C738   1.483       .  S
Zn231       O235   1.940       .  S
Zn231       O236   2.021       .  S
Zn231       O240   1.999       .  S
Zn231       O247   1.980       .  S
Zn232       O235   1.931   1_655  S
Zn232       O237   1.968       .  S
Zn232       O239   1.993   1_655  S
Zn232       O243   1.986       .  S
Zn233       O235   1.965       .  S
Zn233       O238   2.049       .  S
Zn233       O241   2.019   1_455  S
Zn233       O244   1.995       .  S
Zn234       O235   1.969       .  S
Zn234       O242   2.036       .  S
Zn234       O245   2.057       .  S
Zn234       O246   2.042       .  S
O236        C248   1.273       .  A
O237        C249   1.269       .  A
O238        C250   1.277       .  A
O239        C248   1.270       .  A
O240        C250   1.270       .  A
O241        C249   1.274       .  A
O242        C251   1.276       .  A
O243        C252   1.270   1_655  A
O244        C251   1.272       .  A
O245        C252   1.277       .  A
O246        C253   1.278       .  A
O247        C253   1.272       .  A
C248        C642   1.479       .  S
C249        C565   1.467       .  S
C250       C1434   1.492       .  S
C251        C618   1.494       .  S
C252        C714   1.491       .  S
C253        C594   1.479       .  S
Zn254       O258   1.929       .  S
Zn254       O259   1.990       .  S
Zn254       O263   1.971       .  S
Zn254       O270   2.017       .  S
Zn255       O258   1.964       .  S
Zn255       O260   1.998       .  S
Zn255       O262   2.060       .  S
Zn255       O266   2.043       .  S
Zn256       O258   1.966       .  S
Zn256       O261   2.025       .  S
Zn256       O264   2.028       .  S
Zn256       O267   2.040       .  S
Zn257       O258   1.926       .  S
Zn257       O265   1.988       .  S
Zn257       O268   1.976       .  S
Zn257       O269   2.000       .  S
O259        C271   1.272       .  A
O260        C272   1.273       .  A
O261        C273   1.276       .  A
O262        C271   1.277       .  A
O263        C273   1.269       .  A
O264        C272   1.275       .  A
O265        C274   1.271       .  A
O266        C275   1.278       .  A
O267        C274   1.276       .  A
O268        C275   1.271       .  A
O269        C276   1.271       .  A
O270        C276   1.272       .  A
C271       C1290   1.494       .  S
C272        C522   1.485       .  S
C273        C570   1.481       .  S
C274        C834   1.487       .  S
C275        C589   1.484       .  S
C276        C546   1.486       .  S
Zn277       O281   1.960   1_655  S
Zn277       O282   2.032   1_655  S
Zn277       O286   2.044       .  S
Zn277       O293   2.006       .  S
Zn278       O281   1.940   1_556  S
Zn278       O283   2.010       .  S
Zn278       O285   1.981       .  S
Zn278       O289   1.982       .  S
Zn279       O281   1.920   1_656  S
Zn279       O284   1.966       .  S
Zn279       O287   1.998   1_655  S
Zn279       O290   1.984       .  S
Zn280       O281   1.964       .  S
Zn280       O288   2.055       .  S
Zn280       O291   2.045       .  S
Zn280       O292   2.024       .  S
O282        C294   1.276       .  A
O283        C295   1.272       .  A
O284        C296   1.268       .  A
O285        C294   1.268   1_556  A
O286        C296   1.277   1_554  A
O287        C295   1.270       .  A
O288        C297   1.278       .  A
O289        C298   1.270   1_556  A
O290        C297   1.271   1_656  A
O291        C298   1.278       .  A
O292        C299   1.276       .  A
O293        C299   1.272   1_655  A
C294        C925   1.472       .  S
C295        C690   1.487       .  S
C296        C450   1.474       .  S
C297        C498   1.493       .  S
C298        C469   1.493       .  S
C299        C661   1.488       .  S
Zn300       O304   1.964   1_554  S
Zn300       O305   2.050       .  S
Zn300       O309   2.036       .  S
Zn300       O316   2.008       .  S
Zn301       O304   1.937       .  S
Zn301       O306   2.013       .  S
Zn301       O308   1.999       .  S
Zn301       O312   1.998       .  S
Zn302       O304   1.942       .  S
Zn302       O307   1.997       .  S
Zn302       O310   2.032       .  S
Zn302       O313   2.008       .  S
Zn303       O304   1.960   1_554  S
Zn303       O311   2.025       .  S
Zn303       O314   2.024       .  S
Zn303       O315   2.024       .  S
O305        C317   1.277   1_554  A
O306        C318   1.273       .  A
O307        C319   1.273   1_556  A
O308        C317   1.270       .  A
O309        C319   1.277       .  A
O310        C318   1.276       .  A
O311        C320   1.274   1_554  A
O312        C321   1.273       .  A
O313        C320   1.274       .  A
O314        C321   1.275   1_554  A
O315        C322   1.275       .  A
O316        C322   1.272       .  A
C317        C858   1.476       .  S
C318        C805   1.498       .  S
C319        C474   1.492       .  S
C320        C426   1.484   1_556  S
C321        C445   1.485       .  S
C322        C786   1.486       .  S
Zn323       O327   1.936       .  S
Zn323       O328   1.990       .  S
Zn323       O332   2.035       .  S
Zn323       O339   1.993       .  S
Zn324       O327   1.964   1_554  S
Zn324       O329   2.041       .  S
Zn324       O331   2.022       .  S
Zn324       O335   2.026       .  S
Zn325       O327   1.914       .  S
Zn325       O330   1.990       .  S
Zn325       O333   1.973       .  S
Zn325       O336   1.952       .  S
Zn326       O327   1.970   1_554  S
Zn326       O334   2.054       .  S
Zn326       O337   2.000       .  S
Zn326       O338   2.057       .  S
O328        C340   1.273   1_556  A
O329        C341   1.275       .  A
O330        C342   1.269       .  A
O331        C340   1.275       .  A
O332        C342   1.275       .  A
O333        C341   1.269   1_556  A
O334        C343   1.278       .  A
O335        C344   1.276       .  A
O336        C343   1.268   1_556  A
O337        C344   1.271       .  A
O338        C345   1.278   1_554  A
O339        C345   1.272       .  A
C340        C397   1.477       .  S
C341        C421   1.492       .  S
C342        C541   1.489       .  S
C343        C378   1.490       .  S
C344        C517   1.491       .  S
C345       C1050   1.498       .  S
Zn346       O350   1.964       .  S
Zn346       O351   2.035   1_655  S
Zn346       O355   2.002       .  S
Zn346       O362   2.045       .  S
Zn347       O350   1.933   1_456  S
Zn347       O352   2.005   1_455  S
Zn347       O354   1.972       .  S
Zn347       O358   2.007   1_455  S
Zn348       O350   1.957       .  S
Zn348       O353   2.028       .  S
Zn348       O356   2.039       .  S
Zn348       O359   2.017       .  S
Zn349       O350   1.936   1_556  S
Zn349       O357   1.990       .  S
Zn349       O360   2.021       .  S
Zn349       O361   1.998       .  S
O351        C363   1.277       .  A
O352        C364   1.273   1_556  A
O353        C365   1.276       .  A
O354        C363   1.270   1_556  A
O355        C365   1.271       .  A
O356        C364   1.275       .  A
O357        C366   1.272       .  A
O358        C367   1.272       .  A
O359        C366   1.276   1_554  A
O360        C367   1.273       .  A
O361        C368   1.272       .  A
O362        C368   1.276   1_554  A
C363        C402   1.476       .  S
C364        C493   1.493       .  S
C365        C613   1.493       .  S
C366        C373   1.487       .  S
C367        C637   1.494       .  S
C368        C954   1.499   1_556  S
C369        C370   1.405       .  A
C369        C374   1.399       .  A
C369        C383   1.443       .  S
C370        C375   1.473       .  S
C370        C371   1.397   1_554  A
C371        C372   1.395       .  A
C371        H390   1.085       .  S
C372        C373   1.420       .  A
C372        C384   1.445       .  S
C373        C374   1.410   1_556  A
C374        H389   1.084       .  S
C375        C376   1.403       .  A
C375        C380   1.401   1_554  A
C376        C377   1.405       .  A
C376        H391   1.085       .  S
C377        C378   1.417       .  A
C377        C381   1.443       .  S
C378        C379   1.413   1_554  A
C379        C380   1.391       .  A
C379        H392   1.084       .  S
C380        C382   1.445       .  S
C381        N385   1.157       .  T
C382        N386   1.157       .  T
C383        N388   1.157       .  T
C384        N387   1.157       .  T
C393        C394   1.405   1_556  A
C393        C398   1.394       .  A
C393        C407   1.445       .  S
C394        C399   1.473       .  S
C394        C395   1.402       .  A
C395        C396   1.402       .  A
C395        H414   1.085       .  S
C396        C397   1.413       .  A
C396        C408   1.444       .  S
C397        C398   1.406   1_554  A
C398        H413   1.085       .  S
C399        C400   1.397   1_554  A
C399        C404   1.408       .  A
C400        C401   1.394       .  A
C400        H415   1.085       .  S
C401        C402   1.416   1_556  A
C401        C405   1.446       .  S
C402        C403   1.405       .  A
C403        C404   1.401       .  A
C403        H416   1.085       .  S
C404        C406   1.443       .  S
C405        N409   1.157       .  T
C406        N410   1.157       .  T
C407        N412   1.157       .  T
C408        N411   1.157       .  T
C417        C418   1.407   1_556  A
C417        C422   1.395       .  A
C417        C431   1.445       .  S
C418        C423   1.486       .  S
C418        C419   1.404       .  A
C419        C420   1.403       .  A
C419        H438   1.086       .  S
C420        C421   1.417       .  A
C420        C432   1.444       .  S
C421        C422   1.411   1_554  A
C422        H437   1.086       .  S
C423        C424   1.404       .  A
C423        C428   1.409       .  A
C424        C425   1.402       .  A
C424        H439   1.086       .  S
C425        C426   1.415       .  A
C425        C429   1.443       .  S
C426        C427   1.406   1_554  A
C427        C428   1.398   1_556  A
C427        H440   1.085       .  S
C428        C430   1.444   1_554  S
C429        N433   1.157       .  T
C430        N434   1.157       .  T
C431        N436   1.157       .  T
C432        N435   1.157       .  T
C441        C442   1.407       .  A
C441        C446   1.397       .  A
C441        C455   1.445       .  S
C442        C447   1.481       .  S
C442        C443   1.402   1_556  A
C443        C444   1.401       .  A
C443        H462   1.085       .  S
C444        C445   1.415   1_554  A
C444        C456   1.443       .  S
C445        C446   1.409       .  A
C446        H461   1.085       .  S
C447        C448   1.400       .  A
C447        C452   1.412   1_556  A
C448        C449   1.396       .  A
C448        H463   1.085       .  S
C449        C450   1.415       .  A
C449        C453   1.446       .  S
C450        C451   1.402   1_556  A
C451        C452   1.402       .  A
C451        H464   1.085       .  S
C452        C454   1.444       .  S
C453        N457   1.157       .  T
C454        N458   1.157       .  T
C455        N460   1.157       .  T
C456        N459   1.157       .  T
C465        C466   1.408       .  A
C465        C470   1.403       .  A
C465        C479   1.443       .  S
C466        C471   1.481       .  S
C466        C467   1.397   1_554  A
C467        C468   1.396       .  A
C467        H486   1.085       .  S
C468        C469   1.424   1_556  A
C468        C480   1.446       .  S
C469        C470   1.409       .  A
C470        H485   1.084       .  S
C471        C472   1.402       .  A
C471        C476   1.407       .  A
C472        C473   1.403       .  A
C472        H487   1.085       .  S
C473        C474   1.418       .  A
C473        C477   1.443       .  S
C474        C475   1.411       .  A
C475        C476   1.398       .  A
C475        H488   1.085   1_554  S
C476        C478   1.445       .  S
C477        N481   1.157       .  T
C478        N482   1.157   1_554  T
C479        N484   1.157       .  T
C480        N483   1.158       .  T
C489        C490   1.411   1_455  A
C489        C494   1.400   1_554  A
C489        C503   1.445   1_554  S
C490        C495   1.495       .  S
C490        C491   1.406       .  A
C491        C492   1.404       .  A
C491        H510   1.085       .  S
C492        C493   1.416       .  A
C492        C504   1.444       .  S
C493        C494   1.408   1_654  A
C494        H509   1.085       .  S
C495        C496   1.407   1_655  A
C495        C500   1.410       .  A
C496        C497   1.406       .  A
C496        H511   1.085       .  S
C497        C498   1.415       .  A
C497        C501   1.443       .  S
C498        C499   1.409   1_455  A
C499        C500   1.398       .  A
C499        H512   1.085   1_554  S
C500        C502   1.445   1_554  S
C501        N505   1.157       .  T
C502        N506   1.157       .  T
C503        N508   1.157       .  T
C504        N507   1.157       .  T
C513        C514   1.407       .  A
C513        C518   1.399       .  A
C513        C527   1.444       .  S
C514        C519   1.478       .  S
C514        C515   1.398       .  A
C515        C516   1.400       .  A
C515        H534   1.086       .  S
C516        C517   1.422       .  A
C516        C528   1.445       .  S
C517        C518   1.409       .  A
C518        H533   1.085       .  S
C519        C520   1.402       .  A
C519        C524   1.405       .  A
C520        C521   1.403       .  A
C520        H535   1.085       .  S
C521        C522   1.416       .  A
C521        C525   1.444       .  S
C522        C523   1.408       .  A
C523        C524   1.396       .  A
C523        H536   1.084       .  S
C524        C526   1.444       .  S
C525        N529   1.157       .  T
C526        N530   1.157       .  T
C527        N532   1.157       .  T
C528        N531   1.158       .  T
C537        C538   1.408       .  A
C537        C542   1.400       .  A
C537        C551   1.444       .  S
C538        C543   1.479       .  S
C538        C539   1.398       .  A
C539        C540   1.400       .  A
C539        H558   1.085       .  S
C540        C541   1.421       .  A
C540        C552   1.445       .  S
C541        C542   1.407       .  A
C542        H557   1.085       .  S
C543        C544   1.402       .  A
C543        C548   1.406       .  A
C544        C545   1.402       .  A
C544        H559   1.086       .  S
C545        C546   1.418       .  A
C545        C549   1.445       .  S
C546        C547   1.408       .  A
C547        C548   1.397       .  A
C547        H560   1.085       .  S
C548        C550   1.444       .  S
C549        N553   1.158       .  T
C550        N554   1.157       .  T
C551        N556   1.157       .  T
C552        N555   1.158       .  T
C561        C562   1.411       .  A
C561        C566   1.393       .  A
C561        C575   1.445       .  S
C562        C567   1.477       .  S
C562        C563   1.403       .  A
C563        C564   1.399       .  A
C563        H582   1.085       .  S
C564        C565   1.411       .  A
C564        C576   1.445       .  S
C565        C566   1.401       .  A
C566        H581   1.085       .  S
C567        C568   1.397       .  A
C567        C572   1.410       .  A
C568        C569   1.392       .  A
C568        H583   1.085       .  S
C569        C570   1.420       .  A
C569        C573   1.446       .  S
C570        C571   1.407       .  A
C571        C572   1.400       .  A
C571        H584   1.084       .  S
C572        C574   1.444       .  S
C573        N577   1.157       .  T
C574        N578   1.157       .  T
C575        N580   1.157       .  T
C576        N579   1.157       .  T
C585        C586   1.406       .  A
C585        C590   1.395       .  A
C585        C599   1.445       .  S
C586        C591   1.477       .  S
C586        C587   1.402       .  A
C587        C588   1.403       .  A
C587        H606   1.085       .  S
C588        C589   1.416       .  A
C588        C600   1.444       .  S
C589        C590   1.408       .  A
C590        H605   1.085       .  S
C591        C592   1.396       .  A
C591        C596   1.411       .  A
C592        C593   1.395       .  A
C592        H607   1.085       .  S
C593        C594   1.418       .  A
C593        C597   1.446       .  S
C594        C595   1.404       .  A
C595        C596   1.403       .  A
C595        H608   1.084       .  S
C596        C598   1.443       .  S
C597        N601   1.157       .  T
C598        N602   1.157       .  T
C599        N604   1.157       .  T
C600        N603   1.157       .  T
C609        C610   1.407       .  A
C609        C614   1.400       .  A
C609        C623   1.444       .  S
C610        C615   1.481       .  S
C610        C611   1.399       .  A
C611        C612   1.400       .  A
C611        H630   1.086   1_655  S
C612        C613   1.422       .  A
C612        C624   1.444   1_655  S
C613        C614   1.409       .  A
C614        H629   1.085       .  S
C615        C616   1.400   1_655  A
C615        C620   1.405       .  A
C616        C617   1.400       .  A
C616        H631   1.085       .  S
C617        C618   1.418       .  A
C617        C621   1.443       .  S
C618        C619   1.413   1_455  A
C619        C620   1.399       .  A
C619        H632   1.084       .  S
C620        C622   1.444       .  S
C621        N625   1.157       .  T
C622        N626   1.157       .  T
C623        N628   1.157       .  T
C624        N627   1.157       .  T
C633        C634   1.407       .  A
C633        C638   1.398       .  A
C633        C647   1.445       .  S
C634        C639   1.483       .  S
C634        C635   1.401   1_455  A
C635        C636   1.402       .  A
C635        H654   1.085       .  S
C636        C637   1.420       .  A
C636        C648   1.444       .  S
C637        C638   1.410   1_655  A
C638        H653   1.084       .  S
C639        C640   1.401       .  A
C639        C644   1.410       .  A
C640        C641   1.398       .  A
C640        H655   1.085   1_455  S
C641        C642   1.414       .  A
C641        C645   1.445       .  S
C642        C643   1.405       .  A
C643        C644   1.401       .  A
C643        H656   1.085       .  S
C644        C646   1.444       .  S
C645        N649   1.157   1_455  T
C646        N650   1.157       .  T
C647        N652   1.157       .  T
C648        N651   1.157       .  T
C657        C658   1.409   1_455  A
C657        C662   1.399       .  A
C657        C671   1.444       .  S
C658        C663   1.482       .  S
C658        C659   1.400       .  A
C659        C660   1.401       .  A
C659        H678   1.085       .  S
C660        C661   1.420   1_655  A
C660        C672   1.445       .  S
C661        C662   1.407       .  A
C662        H677   1.084       .  S
C663        C664   1.402       .  A
C663        C668   1.406   1_655  A
C664        C665   1.404       .  A
C664        H679   1.085       .  S
C665        C666   1.418       .  A
C665        C669   1.444       .  S
C666        C667   1.411       .  A
C667        C668   1.396   1_655  A
C667        H680   1.085   1_655  S
C668        C670   1.445       .  S
C669        N673   1.157       .  T
C670        N674   1.157       .  T
C671        N676   1.157       .  T
C672        N675   1.158       .  T
C681        C682   1.406       .  A
C681        C686   1.398       .  A
C681        C695   1.444       .  S
C682        C687   1.479       .  S
C682        C683   1.401   1_455  A
C683        C684   1.401       .  A
C683        H702   1.086       .  S
C684        C685   1.418       .  A
C684        C696   1.444       .  S
C685        C686   1.409   1_655  A
C686        H701   1.085       .  S
C687        C688   1.399   1_455  A
C687        C692   1.407       .  A
C688        C689   1.399   1_655  A
C688        H703   1.085       .  S
C689        C690   1.419       .  A
C689        C693   1.445   1_455  S
C690        C691   1.408       .  A
C691        C692   1.399       .  A
C691        H704   1.085       .  S
C692        C694   1.444       .  S
C693        N697   1.157       .  T
C694        N698   1.157       .  T
C695        N700   1.157       .  T
C696        N699   1.157       .  T
C705        C706   1.405   1_455  A
C705        C710   1.396       .  A
C705        C719   1.444       .  S
C706        C711   1.480       .  S
C706        C707   1.403       .  A
C707        C708   1.404       .  A
C707        H726   1.085       .  S
C708        C709   1.414       .  A
C708        C720   1.444       .  S
C709        C710   1.409   1_655  A
C710        H725   1.085       .  S
C711        C712   1.402   1_655  A
C711        C716   1.405       .  A
C712        C713   1.404       .  A
C712        H727   1.085       .  S
C713        C714   1.416       .  A
C713        C717   1.442       .  S
C714        C715   1.410   1_455  A
C715        C716   1.399       .  A
C715        H728   1.085       .  S
C716        C718   1.444       .  S
C717        N721   1.157       .  T
C718        N722   1.157       .  T
C719        N724   1.157       .  T
C720        N723   1.157       .  T
C729        C730   1.406       .  A
C729        C734   1.392       .  A
C729        C743   1.446       .  S
C730        C735   1.483       .  S
C730        C731   1.405       .  A
C731        C732   1.406       .  A
C731        H750   1.085       .  S
C732        C733   1.417       .  A
C732        C744   1.443       .  S
C733        C734   1.411       .  A
C734        H749   1.085       .  S
C735        C736   1.401       .  A
C735        C740   1.410       .  A
C736        C737   1.401       .  A
C736        H751   1.085       .  S
C737        C738   1.417       .  A
C737        C741   1.444       .  S
C738        C739   1.405       .  A
C739        C740   1.398       .  A
C739        H752   1.085       .  S
C740        C742   1.445       .  S
C741        N745   1.157       .  T
C742        N746   1.157       .  T
C743        N748   1.157       .  T
C744        N747   1.157       .  T
C753        C754   1.409       .  A
C753        C758   1.397       .  A
C753        C767   1.445       .  S
C754        C759   1.477       .  S
C754        C755   1.401       .  A
C755        C756   1.399       .  A
C755        H774   1.085       .  S
C756        C757   1.414       .  A
C756        C768   1.444       .  S
C757        C758   1.404       .  A
C758        H773   1.085       .  S
C759        C760   1.398       .  A
C759        C764   1.411       .  A
C760        C761   1.395       .  A
C760        H775   1.085       .  S
C761        C762   1.415       .  A
C761        C765   1.446       .  S
C762        C763   1.403       .  A
C763        C764   1.401       .  A
C763        H776   1.084       .  S
C764        C766   1.443       .  S
C765        N769   1.158       .  T
C766        N770   1.157       .  T
C767        N772   1.157       .  T
C768        N771   1.157       .  T
C777        C778   1.408       .  A
C777        C782   1.399       .  A
C777        C791   1.444       .  S
C778        C783   1.482       .  S
C778        C779   1.401       .  A
C779        C780   1.401       .  A
C779        H798   1.086       .  S
C780        C781   1.416       .  A
C780        C792   1.444       .  S
C781        C782   1.408       .  A
C782        H797   1.086       .  S
C783        C784   1.400       .  A
C783        C788   1.409       .  A
C784        C785   1.400       .  A
C784        H799   1.085       .  S
C785        C786   1.417       .  A
C785        C789   1.444       .  S
C786        C787   1.407       .  A
C787        C788   1.401       .  A
C787        H800   1.085       .  S
C788        C790   1.444       .  S
C789        N793   1.157       .  T
C790        N794   1.157       .  T
C791        N796   1.157       .  T
C792        N795   1.157       .  T
C801        C802   1.411       .  A
C801        C806   1.403       .  A
C801        C815   1.444       .  S
C802        C807   1.492       .  S
C802        C803   1.402       .  A
C803        C804   1.400       .  A
C803        H822   1.086       .  S
C804        C805   1.421       .  A
C804        C816   1.444       .  S
C805        C806   1.410       .  A
C806        H821   1.085       .  S
C807        C808   1.405       .  A
C807        C812   1.413       .  A
C808        C809   1.402       .  A
C808        H823   1.086       .  S
C809        C810   1.414       .  A
C809        C813   1.444       .  S
C810        C811   1.404       .  A
C811        C812   1.400       .  A
C811        H824   1.086       .  S
C812        C814   1.444       .  S
C813        N817   1.157       .  T
C814        N818   1.157       .  T
C815        N820   1.157       .  T
C816        N819   1.157       .  T
C825        C826   1.409       .  A
C825        C830   1.397       .  A
C825        C839   1.444       .  S
C826        C831   1.486       .  S
C826        C827   1.405       .  A
C827        C828   1.402       .  A
C827        H846   1.086       .  S
C828        C829   1.414       .  A
C828        C840   1.444       .  S
C829        C830   1.406       .  A
C830        H845   1.086       .  S
C831        C832   1.404       .  A
C831        C836   1.409       .  A
C832        C833   1.402       .  A
C832        H847   1.085       .  S
C833        C834   1.415       .  A
C833        C837   1.444       .  S
C834        C835   1.408       .  A
C835        C836   1.398       .  A
C835        H848   1.085       .  S
C836        C838   1.445       .  S
C837        N841   1.157       .  T
C838        N842   1.157       .  T
C839        N844   1.157       .  T
C840        N843   1.157       .  T
C849        C850   1.406   1_554  A
C849        C854   1.397       .  A
C849        C863   1.444       .  S
C850        C855   1.488       .  S
C850        C851   1.405       .  A
C851        C852   1.409       .  A
C851        H870   1.084       .  S
C852        C853   1.418       .  A
C852        C864   1.443       .  S
C853        C854   1.410   1_556  A
C854        H869   1.084       .  S
C855        C856   1.401   1_556  A
C855        C860   1.413       .  A
C856        C857   1.399       .  A
C856        H871   1.085       .  S
C857        C858   1.412   1_554  A
C857        C861   1.445       .  S
C858        C859   1.403       .  A
C859        C860   1.407       .  A
C859        H872   1.084       .  S
C860        C862   1.443       .  S
C861        N865   1.157       .  T
C862        N866   1.157       .  T
C863        N868   1.157       .  T
C864        N867   1.157       .  T
C873        C874   1.411   1_456  A
C873        C878   1.399       .  A
C873        C887   1.444   1_455  S
C874        C879   1.488   1_554  S
C874        C875   1.402   1_655  A
C875        C876   1.402       .  A
C875        H894   1.085   1_455  S
C876        C877   1.419       .  A
C876        C888   1.444       .  S
C877        C878   1.407   1_554  A
C878        H893   1.084       .  S
C879        C880   1.401       .  A
C879        C884   1.415   1_556  A
C880        C881   1.396       .  A
C880        H895   1.085       .  S
C881        C882   1.413       .  A
C881        C885   1.446       .  S
C882        C883   1.402   1_556  A
C883        C884   1.406       .  A
C883        H896   1.084       .  S
C884        C886   1.444       .  S
C885        N889   1.157       .  T
C886        N890   1.157       .  T
C887        N892   1.157       .  T
C888        N891   1.157       .  T
C897        C898   1.409       .  A
C897        C902   1.402       .  A
C897        C911   1.443       .  S
C898        C903   1.477       .  S
C898        C899   1.400   1_556  A
C899        C900   1.397       .  A
C899        H918   1.085       .  S
C900        C901   1.411   1_554  A
C900        C912   1.445       .  S
C901        C902   1.405       .  A
C902        H917   1.085       .  S
C903        C904   1.397       .  A
C903        C908   1.410       .  A
C904        C905   1.396       .  A
C904        H919   1.085       .  S
C905        C906   1.416       .  A
C905        C909   1.445       .  S
C906        C907   1.404       .  A
C907        C908   1.404       .  A
C907        H920   1.084       .  S
C908        C910   1.443       .  S
C909        N913   1.157       .  T
C910        N914   1.157       .  T
C911        N916   1.157       .  T
C912        N915   1.157       .  T
C921        C922   1.411   1_556  A
C921        C926   1.400       .  A
C921        C935   1.444       .  S
C922        C927   1.483       .  S
C922        C923   1.402       .  A
C923        C924   1.397       .  A
C923        H942   1.087       .  S
C924        C925   1.412       .  A
C924        C936   1.445       .  S
C925        C926   1.404   1_554  A
C926        H941   1.087       .  S
C927        C928   1.405   1_554  A
C927        C932   1.406       .  A
C928        C929   1.404       .  A
C928        H943   1.084       .  S
C929        C930   1.416   1_556  A
C929        C933   1.444       .  S
C930        C931   1.410       .  A
C931        C932   1.392       .  A
C931        H944   1.083       .  S
C932        C934   1.446       .  S
C933        N937   1.157       .  T
C934        N938   1.157       .  T
C935        N940   1.157       .  T
C936        N939   1.157       .  T
C945        C946   1.404   1_556  A
C945        C950   1.398       .  A
C945        C959   1.445       .  S
C946        C951   1.486       .  S
C946        C947   1.403       .  A
C947        C948   1.408       .  A
C947        H966   1.085       .  S
C948        C949   1.420       .  A
C948        C960   1.443       .  S
C949        C950   1.413   1_554  A
C950        H965   1.084       .  S
C951        C952   1.402       .  A
C951        C956   1.405   1_554  A
C952        C953   1.407       .  A
C952        H967   1.085       .  S
C953        C954   1.420       .  A
C953        C957   1.443       .  S
C954        C955   1.412   1_554  A
C955        C956   1.399       .  A
C955        H968   1.084       .  S
C956        C958   1.444       .  S
C957        N961   1.157   1_655  T
C958        N962   1.157       .  T
C959        N964   1.157       .  T
C960        N963   1.157       .  T
C969        C970   1.407       .  A
C969        C974   1.399       .  A
C969        C983   1.445       .  S
C970        C975   1.486   1_545  S
C970        C971   1.404   1_554  A
C971        C972   1.404       .  A
C971        H990   1.085       .  S
C972        C973   1.414       .  A
C972        C984   1.443       .  S
C973        C974   1.410   1_556  A
C974        H989   1.085       .  S
C975        C976   1.404       .  A
C975        C980   1.409   1_554  A
C976        C977   1.403       .  A
C976        H991   1.085       .  S
C977        C978   1.414       .  A
C977        C981   1.444       .  S
C978        C979   1.405   1_554  A
C979        C980   1.399       .  A
C979        H992   1.085       .  S
C980        C982   1.444       .  S
C981        N985   1.157       .  T
C982        N986   1.157       .  T
C983        N988   1.157       .  T
C984        N987   1.157       .  T
C993        C994   1.410   1_554  A
C993        C998   1.403       .  A
C993       C1007   1.443       .  S
C994        C999   1.484       .  S
C994        C995   1.401       .  A
C995        C996   1.398       .  A
C995       H1014   1.085       .  S
C996        C997   1.415       .  A
C996       C1008   1.446       .  S
C997        C998   1.404   1_556  A
C998       H1013   1.084       .  S
C999       C1000   1.404   1_556  A
C999       C1004   1.406       .  A
C1000      C1001   1.405       .  A
C1000      H1015   1.085       .  S
C1001      C1002   1.417   1_554  A
C1001      C1005   1.443       .  S
C1002      C1003   1.410       .  A
C1003      C1004   1.397       .  A
C1003      H1016   1.085       .  S
C1004      C1006   1.445       .  S
C1005      N1009   1.157       .  T
C1006      N1010   1.157       .  T
C1007      N1012   1.157       .  T
C1008      N1011   1.158       .  T
C1017      C1018   1.412       .  A
C1017      C1022   1.402       .  A
C1017      C1031   1.444   1_554  S
C1018      C1023   1.479       .  S
C1018      C1019   1.398       .  A
C1019      C1020   1.397       .  A
C1019      H1038   1.085       .  S
C1020      C1021   1.416       .  A
C1020      C1032   1.446       .  S
C1021      C1022   1.402       .  A
C1022      H1037   1.084   1_554  S
C1023      C1024   1.402   1_455  A
C1023      C1028   1.407   1_454  A
C1024      C1025   1.403       .  A
C1024      H1039   1.085   1_655  S
C1025      C1026   1.417       .  A
C1025      C1029   1.444       .  S
C1026      C1027   1.407   1_554  A
C1027      C1028   1.396       .  A
C1027      H1040   1.085       .  S
C1028      C1030   1.445   1_655  S
C1029      N1033   1.157       .  T
C1030      N1034   1.157       .  T
C1031      N1036   1.157       .  T
C1032      N1035   1.158       .  T
C1041      C1042   1.404       .  A
C1041      C1046   1.397       .  A
C1041      C1055   1.445       .  S
C1042      C1047   1.486       .  S
C1042      C1043   1.405   1_556  A
C1043      C1044   1.408       .  A
C1043      H1062   1.085       .  S
C1044      C1045   1.419   1_554  A
C1044      C1056   1.443       .  S
C1045      C1046   1.412       .  A
C1046      H1061   1.084       .  S
C1047      C1048   1.405   1_556  A
C1047      C1052   1.405       .  A
C1048      C1049   1.408       .  A
C1048      H1063   1.085       .  S
C1049      C1050   1.418   1_554  A
C1049      C1053   1.443       .  S
C1050      C1051   1.412       .  A
C1051      C1052   1.398       .  A
C1051      H1064   1.084       .  S
C1052      C1054   1.445       .  S
C1053      N1057   1.157       .  T
C1054      N1058   1.157       .  T
C1055      N1060   1.157       .  T
C1056      N1059   1.157       .  T
C1065      C1066   1.411   1_554  A
C1065      C1070   1.400       .  A
C1065      C1079   1.444       .  S
C1066      C1071   1.483   1_565  S
C1066      C1067   1.402       .  A
C1067      C1068   1.401       .  A
C1067      H1086   1.085       .  S
C1068      C1069   1.413       .  A
C1068      C1080   1.444       .  S
C1069      C1070   1.403   1_556  A
C1070      H1085   1.085       .  S
C1071      C1072   1.398   1_556  A
C1071      C1076   1.410       .  A
C1072      C1073   1.396       .  A
C1072      H1087   1.086       .  S
C1073      C1074   1.420       .  A
C1073      C1077   1.445       .  S
C1074      C1075   1.408   1_554  A
C1075      C1076   1.403       .  A
C1075      H1088   1.085       .  S
C1076      C1078   1.444       .  S
C1077      N1081   1.157       .  T
C1078      N1082   1.157   1_545  T
C1079      N1084   1.157       .  T
C1080      N1083   1.157       .  T
C1089      C1090   1.410       .  A
C1089      C1094   1.403       .  A
C1089      C1103   1.444       .  S
C1090      C1095   1.483       .  S
C1090      C1091   1.397       .  A
C1091      C1092   1.396       .  A
C1091      H1110   1.087       .  S
C1092      C1093   1.424       .  A
C1092      C1104   1.446       .  S
C1093      C1094   1.409       .  A
C1094      H1109   1.085       .  S
C1095      C1096   1.405       .  A
C1095      C1100   1.411       .  A
C1096      C1097   1.402       .  A
C1096      H1111   1.085       .  S
C1097      C1098   1.410       .  A
C1097      C1101   1.444       .  S
C1098      C1099   1.401       .  A
C1099      C1100   1.397       .  A
C1099      H1112   1.086       .  S
C1100      C1102   1.445       .  S
C1101      N1105   1.157       .  T
C1102      N1106   1.157       .  T
C1103      N1108   1.157       .  T
C1104      N1107   1.158       .  T
C1113      C1114   1.406       .  A
C1113      C1118   1.394       .  A
C1113      C1127   1.445       .  S
C1114      C1119   1.479       .  S
C1114      C1115   1.402       .  A
C1115      C1116   1.404       .  A
C1115      H1134   1.084       .  S
C1116      C1117   1.418       .  A
C1116      C1128   1.444       .  S
C1117      C1118   1.409       .  A
C1118      H1133   1.084       .  S
C1119      C1120   1.401       .  A
C1119      C1124   1.407       .  A
C1120      C1121   1.402       .  A
C1120      H1135   1.085       .  S
C1121      C1122   1.417       .  A
C1121      C1125   1.444       .  S
C1122      C1123   1.408       .  A
C1123      C1124   1.397       .  A
C1123      H1136   1.085       .  S
C1124      C1126   1.445       .  S
C1125      N1129   1.157       .  T
C1126      N1130   1.157       .  T
C1127      N1132   1.157       .  T
C1128      N1131   1.157       .  T
C1137      C1138   1.410       .  A
C1137      C1142   1.403       .  A
C1137      C1151   1.444       .  S
C1138      C1143   1.486       .  S
C1138      C1139   1.400       .  A
C1139      C1140   1.397       .  A
C1139      H1158   1.087       .  S
C1140      C1141   1.421       .  A
C1140      C1152   1.445       .  S
C1141      C1142   1.410       .  A
C1142      H1157   1.085       .  S
C1143      C1144   1.399       .  A
C1143      C1148   1.410       .  A
C1144      C1145   1.395       .  A
C1144      H1159   1.086       .  S
C1145      C1146   1.421       .  A
C1145      C1149   1.444       .  S
C1146      C1147   1.411       .  A
C1147      C1148   1.405       .  A
C1147      H1160   1.085       .  S
C1148      C1150   1.444       .  S
C1149      N1153   1.157       .  T
C1150      N1154   1.157       .  T
C1151      N1156   1.157       .  T
C1152      N1155   1.158       .  T
C1161      C1162   1.411       .  A
C1161      C1166   1.398       .  A
C1161      C1175   1.444       .  S
C1162      C1167   1.485       .  S
C1162      C1163   1.405       .  A
C1163      C1164   1.400       .  A
C1163      H1182   1.085       .  S
C1164      C1165   1.410       .  A
C1164      C1176   1.444       .  S
C1165      C1166   1.402       .  A
C1166      H1181   1.085       .  S
C1167      C1168   1.405       .  A
C1167      C1172   1.409       .  A
C1168      C1169   1.401       .  A
C1168      H1183   1.085       .  S
C1169      C1170   1.413       .  A
C1169      C1173   1.444       .  S
C1170      C1171   1.407       .  A
C1171      C1172   1.398       .  A
C1171      H1184   1.085       .  S
C1172      C1174   1.444       .  S
C1173      N1177   1.157       .  T
C1174      N1178   1.157       .  T
C1175      N1180   1.157       .  T
C1176      N1179   1.157       .  T
C1185      C1186   1.407   1_655  A
C1185      C1190   1.399       .  A
C1185      C1199   1.445   1_655  S
C1186      C1191   1.487       .  S
C1186      C1187   1.403   1_455  A
C1187      C1188   1.402       .  A
C1187      H1206   1.086   1_655  S
C1188      C1189   1.419       .  A
C1188      C1200   1.444       .  S
C1189      C1190   1.412       .  A
C1190      H1205   1.085       .  S
C1191      C1192   1.406       .  A
C1191      C1196   1.407       .  A
C1192      C1193   1.405       .  A
C1192      H1207   1.085       .  S
C1193      C1194   1.414       .  A
C1193      C1197   1.444       .  S
C1194      C1195   1.408       .  A
C1195      C1196   1.395       .  A
C1195      H1208   1.085       .  S
C1196      C1198   1.444       .  S
C1197      N1201   1.157       .  T
C1198      N1202   1.157       .  T
C1199      N1204   1.157       .  T
C1200      N1203   1.157       .  T
C1209      C1210   1.413       .  A
C1209      C1214   1.405       .  A
C1209      C1223   1.444       .  S
C1210      C1215   1.487       .  S
C1210      C1211   1.398       .  A
C1211      C1212   1.396       .  A
C1211      H1230   1.086       .  S
C1212      C1213   1.421       .  A
C1212      C1224   1.446       .  S
C1213      C1214   1.406       .  A
C1214      H1229   1.086       .  S
C1215      C1216   1.402       .  A
C1215      C1220   1.413       .  A
C1216      C1217   1.402       .  A
C1216      H1231   1.085       .  S
C1217      C1218   1.415       .  A
C1217      C1221   1.444       .  S
C1218      C1219   1.404       .  A
C1219      C1220   1.401       .  A
C1219      H1232   1.085       .  S
C1220      C1222   1.444       .  S
C1221      N1225   1.157       .  T
C1222      N1226   1.157       .  T
C1223      N1228   1.157       .  T
C1224      N1227   1.157       .  T
C1233      C1234   1.410       .  A
C1233      C1238   1.399       .  A
C1233      C1247   1.444       .  S
C1234      C1239   1.486       .  S
C1234      C1235   1.403       .  A
C1235      C1236   1.403       .  A
C1235      H1254   1.084       .  S
C1236      C1237   1.417       .  A
C1236      C1248   1.445       .  S
C1237      C1238   1.404       .  A
C1238      H1253   1.083       .  S
C1239      C1240   1.402       .  A
C1239      C1244   1.408       .  A
C1240      C1241   1.403       .  A
C1240      H1255   1.085       .  S
C1241      C1242   1.419       .  A
C1241      C1245   1.444       .  S
C1242      C1243   1.409       .  A
C1243      C1244   1.399       .  A
C1243      H1256   1.084       .  S
C1244      C1246   1.444       .  S
C1245      N1249   1.157       .  T
C1246      N1250   1.157       .  T
C1247      N1252   1.157       .  T
C1248      N1251   1.158       .  T
C1257      C1258   1.409       .  A
C1257      C1262   1.401       .  A
C1257      C1271   1.444       .  S
C1258      C1263   1.482       .  S
C1258      C1259   1.399       .  A
C1259      C1260   1.400       .  A
C1259      H1278   1.086       .  S
C1260      C1261   1.420       .  A
C1260      C1272   1.445       .  S
C1261      C1262   1.407       .  A
C1262      H1277   1.086       .  S
C1263      C1264   1.401       .  A
C1263      C1268   1.409       .  A
C1264      C1265   1.402       .  A
C1264      H1279   1.085       .  S
C1265      C1266   1.416       .  A
C1265      C1269   1.444       .  S
C1266      C1267   1.406       .  A
C1267      C1268   1.400       .  A
C1267      H1280   1.085       .  S
C1268      C1270   1.444       .  S
C1269      N1273   1.157       .  T
C1270      N1274   1.157       .  T
C1271      N1276   1.157       .  T
C1272      N1275   1.158       .  T
C1281      C1282   1.408       .  A
C1281      C1286   1.399       .  A
C1281      C1295   1.445       .  S
C1282      C1287   1.488       .  S
C1282      C1283   1.403       .  A
C1283      C1284   1.408       .  A
C1283      H1302   1.085       .  S
C1284      C1285   1.418       .  A
C1284      C1296   1.443       .  S
C1285      C1286   1.409       .  A
C1286      H1301   1.085       .  S
C1287      C1288   1.407       .  A
C1287      C1292   1.405       .  A
C1288      C1289   1.411       .  A
C1288      H1303   1.084       .  S
C1289      C1290   1.416       .  A
C1289      C1293   1.443       .  S
C1290      C1291   1.409       .  A
C1291      C1292   1.395       .  A
C1291      H1304   1.084       .  S
C1292      C1294   1.444       .  S
C1293      N1297   1.157       .  T
C1294      N1298   1.157       .  T
C1295      N1300   1.157       .  T
C1296      N1299   1.157       .  T
C1305      C1306   1.406       .  A
C1305      C1310   1.398       .  A
C1305      C1319   1.444       .  S
C1306      C1311   1.485       .  S
C1306      C1307   1.403       .  A
C1307      C1308   1.406       .  A
C1307      H1326   1.086       .  S
C1308      C1309   1.420       .  A
C1308      C1320   1.444       .  S
C1309      C1310   1.409       .  A
C1310      H1325   1.085       .  S
C1311      C1312   1.400       .  A
C1311      C1316   1.408       .  A
C1312      C1313   1.403       .  A
C1312      H1327   1.085       .  S
C1313      C1314   1.421       .  A
C1313      C1317   1.444       .  S
C1314      C1315   1.409       .  A
C1315      C1316   1.403       .  A
C1315      H1328   1.084       .  S
C1316      C1318   1.444       .  S
C1317      N1321   1.157       .  T
C1318      N1322   1.157       .  T
C1319      N1324   1.157       .  T
C1320      N1323   1.158       .  T
C1329      C1330   1.410       .  A
C1329      C1334   1.405       .  A
C1329      C1343   1.443       .  S
C1330      C1335   1.487       .  S
C1330      C1331   1.400       .  A
C1331      C1332   1.400       .  A
C1331      H1350   1.085       .  S
C1332      C1333   1.420       .  A
C1332      C1344   1.445       .  S
C1333      C1334   1.408       .  A
C1334      H1349   1.084       .  S
C1335      C1336   1.402       .  A
C1335      C1340   1.407       .  A
C1336      C1337   1.406       .  A
C1336      H1351   1.085       .  S
C1337      C1338   1.420       .  A
C1337      C1341   1.443       .  S
C1338      C1339   1.412       .  A
C1339      C1340   1.401       .  A
C1339      H1352   1.085       .  S
C1340      C1342   1.444       .  S
C1341      N1345   1.157       .  T
C1342      N1346   1.157       .  T
C1343      N1348   1.157       .  T
C1344      N1347   1.157       .  T
C1353      C1354   1.409       .  A
C1353      C1358   1.396       .  A
C1353      C1367   1.445       .  S
C1354      C1359   1.487   1_565  S
C1354      C1355   1.403       .  A
C1355      C1356   1.405       .  A
C1355      H1374   1.086       .  S
C1356      C1357   1.419       .  A
C1356      C1368   1.444       .  S
C1357      C1358   1.409       .  A
C1358      H1373   1.085       .  S
C1359      C1360   1.403       .  A
C1359      C1364   1.412       .  A
C1360      C1361   1.402       .  A
C1360      H1375   1.085       .  S
C1361      C1362   1.413       .  A
C1361      C1365   1.445       .  S
C1362      C1363   1.403       .  A
C1363      C1364   1.400       .  A
C1363      H1376   1.085       .  S
C1364      C1366   1.444       .  S
C1365      N1369   1.157       .  T
C1366      N1370   1.157       .  T
C1367      N1372   1.157       .  T
C1368      N1371   1.157       .  T
C1377      C1378   1.407       .  A
C1377      C1382   1.396       .  A
C1377      C1391   1.445       .  S
C1378      C1383   1.489       .  S
C1378      C1379   1.406       .  A
C1379      C1380   1.406       .  A
C1379      H1398   1.085       .  S
C1380      C1381   1.417       .  A
C1380      C1392   1.443       .  S
C1381      C1382   1.412       .  A
C1382      H1397   1.085       .  S
C1383      C1384   1.405   1_655  A
C1383      C1388   1.409   1_655  A
C1384      C1385   1.401       .  A
C1384      H1399   1.085   1_455  S
C1385      C1386   1.415       .  A
C1385      C1389   1.444       .  S
C1386      C1387   1.408       .  A
C1387      C1388   1.400       .  A
C1387      H1400   1.085       .  S
C1388      C1390   1.444   1_455  S
C1389      N1393   1.157       .  T
C1390      N1394   1.157       .  T
C1391      N1396   1.157       .  T
C1392      N1395   1.157       .  T
C1401      C1402   1.413       .  A
C1401      C1406   1.403       .  A
C1401      C1415   1.444       .  S
C1402      C1407   1.485       .  S
C1402      C1403   1.400       .  A
C1403      C1404   1.399       .  A
C1403      H1422   1.085       .  S
C1404      C1405   1.415       .  A
C1404      C1416   1.444       .  S
C1405      C1406   1.403       .  A
C1406      H1421   1.084       .  S
C1407      C1408   1.402       .  A
C1407      C1412   1.412       .  A
C1408      C1409   1.399       .  A
C1408      H1423   1.085       .  S
C1409      C1410   1.413       .  A
C1409      C1413   1.445       .  S
C1410      C1411   1.403       .  A
C1411      C1412   1.401       .  A
C1411      H1424   1.085       .  S
C1412      C1414   1.444       .  S
C1413      N1417   1.157       .  T
C1414      N1418   1.157       .  T
C1415      N1420   1.157       .  T
C1416      N1419   1.157       .  T
C1425      C1426   1.416       .  A
C1425      C1430   1.406       .  A
C1425      C1439   1.444       .  S
C1426      C1431   1.498       .  S
C1426      C1427   1.402       .  A
C1427      C1428   1.402       .  A
C1427      H1446   1.086       .  S
C1428      C1429   1.420       .  A
C1428      C1440   1.446       .  S
C1429      C1430   1.405       .  A
C1430      H1445   1.085       .  S
C1431      C1432   1.404       .  A
C1431      C1436   1.415       .  A
C1432      C1433   1.402       .  A
C1432      H1447   1.085       .  S
C1433      C1434   1.418       .  A
C1433      C1437   1.445       .  S
C1434      C1435   1.406       .  A
C1435      C1436   1.405       .  A
C1435      H1448   1.085       .  S
C1436      C1438   1.444       .  S
C1437      N1441   1.157       .  T
C1438      N1442   1.157       .  T
C1439      N1444   1.157       .  T
C1440      N1443   1.158       .  T
C1449      C1450   1.409       .  A
C1449      C1454   1.399       .  A
C1449      C1463   1.444       .  S
C1450      C1455   1.485       .  S
C1450      C1451   1.405       .  A
C1451      C1452   1.403       .  A
C1451      H1470   1.085       .  S
C1452      C1453   1.410       .  A
C1452      C1464   1.443       .  S
C1453      C1454   1.404       .  A
C1454      H1469   1.086       .  S
C1455      C1456   1.402       .  A
C1455      C1460   1.408       .  A
C1456      C1457   1.401       .  A
C1456      H1471   1.085       .  S
C1457      C1458   1.416       .  A
C1457      C1461   1.444       .  S
C1458      C1459   1.408       .  A
C1459      C1460   1.401       .  A
C1459      H1472   1.085       .  S
C1460      C1462   1.444       .  S
C1461      N1465   1.157       .  T
C1462      N1466   1.157       .  T
C1463      N1468   1.157       .  T
C1464      N1467   1.157       .  T
C1473      C1474   1.411       .  A
C1473      C1478   1.404       .  A
C1473      C1487   1.444       .  S
C1474      C1479   1.491       .  S
C1474      C1475   1.400       .  A
C1475      C1476   1.402       .  A
C1475      H1494   1.087       .  S
C1476      C1477   1.422       .  A
C1476      C1488   1.444       .  S
C1477      C1478   1.409       .  A
C1478      H1493   1.086       .  S
C1479      C1480   1.403       .  A
C1479      C1484   1.412       .  A
C1480      C1481   1.401       .  A
C1480      H1495   1.086       .  S
C1481      C1482   1.417       .  A
C1481      C1485   1.445       .  S
C1482      C1483   1.406       .  A
C1483      C1484   1.403       .  A
C1483      H1496   1.085       .  S
C1484      C1486   1.444       .  S
C1485      N1489   1.158       .  T
C1486      N1490   1.157       .  T
C1487      N1492   1.157       .  T
C1488      N1491   1.157       .  T
C1497      C1498   1.412       .  A
C1497      C1502   1.403       .  A
C1497      C1511   1.444       .  S
C1498      C1503   1.498   1_565  S
C1498      C1499   1.407       .  A
C1499      C1500   1.404       .  A
C1499      H1518   1.086       .  S
C1500      C1501   1.415       .  A
C1500      C1512   1.444       .  S
C1501      C1502   1.407       .  A
C1502      H1517   1.086       .  S
C1503      C1504   1.407       .  A
C1503      C1508   1.412       .  A
C1504      C1505   1.406       .  A
C1504      H1519   1.085       .  S
C1505      C1506   1.417       .  A
C1505      C1509   1.444       .  S
C1506      C1507   1.408       .  A
C1507      C1508   1.400       .  A
C1507      H1520   1.085       .  S
C1508      C1510   1.444       .  S
C1509      N1513   1.157       .  T
C1510      N1514   1.157       .  T
C1511      N1516   1.157       .  T
C1512      N1515   1.157       .  T
