geometry optimzed in LAMMPS
_audit_creation_date              2020-12-01 
_audit_creation_method            'lammps2cif' 
_symmetry_space_group_name_H-M    'P1' 
_symmetry_Int_Tables_number       1 
_symmetry_cell_setting            triclinic 
loop_ 
_symmetry_equiv_pos_as_xyz 
  x,y,z 
_cell_length_a                    52.89711151 
_cell_length_b                    22.044631384775993 
_cell_length_c                    111.36102730426575 
_cell_angle_alpha                 90.02465298575753 
_cell_angle_beta                  90.33513261785126 
_cell_angle_gamma                 90.01364106809972 
loop_ 
_atom_site_label 
_atom_site_type_symbol 
_atom_site_fract_x 
_atom_site_fract_y 
_atom_site_fract_z 
_atom_site_charge 
O1          O  0.78295711  0.99333659  0.18056861    -0.71200
O2          O  0.71602984  0.06059736  0.18185299    -0.71500
O3          O  0.74923814  0.01610554  0.19789558    -0.71300
O4          O  0.75007017  0.04124842  0.16467809    -0.71300
O5          O  0.73437262  0.95151427  0.16143683    -0.71300
O6          O  0.73291786  0.92635476  0.19546587    -0.71300
O7          O  0.70083284  0.97007580  0.17901992    -0.71200
O8          O  0.76619336  0.90419706  0.17799960    -0.71400
V9          V  0.74931975  0.02602691  0.18118912     1.35200
V10         V  0.73395899  0.93973158  0.17850527     1.35200
C11         C  0.78563161  0.93649003  0.17923841     0.78000
C12         C  0.69705620  0.02578208  0.18067488     0.78100
C13         C  0.74076212  0.96803647  0.20239847     0.77900
C14         C  0.74193688  0.00217304  0.15741223     0.77900
O15         O  0.69777830  0.92010769  0.30879175    -0.71200
O16         O  0.76466798  0.85765196  0.30331619    -0.71500
O17         O  0.73421833  0.86686339  0.32230000    -0.71300
O18         O  0.72803266  0.90692027  0.28978730    -0.71300
O19         O  0.74507233  0.99532855  0.29290982    -0.71300
O20         O  0.74870539  0.95666425  0.32654289    -0.71300
O21         O  0.77974568  0.94689363  0.30753229    -0.71200
O22         O  0.71422807  0.00917625  0.31181230    -0.71400
V23         V  0.73141436  0.88968311  0.30615357     1.35200
V24         V  0.74657866  0.97534813  0.30967430     1.35200
C25         C  0.69484578  0.97636362  0.31087832     0.78000
C26         C  0.78357490  0.89275010  0.30444824     0.78100
C27         C  0.74264596  0.90363404  0.32995525     0.77900
C28         C  0.73603377  0.95631416  0.28568148     0.77900
O29         O  0.94017266  0.66607361  0.17898170    -0.71200
O30         O  0.00687302  0.59999802  0.18281752    -0.71500
O31         O  0.97257511  0.65277937  0.19713677    -0.71300
O32         O  0.97396462  0.61006950  0.16464697    -0.71300
O33         O  0.98862520  0.69895282  0.15987966    -0.71300
O34         O  0.99051194  0.73939256  0.19338269    -0.71300
O35         O  0.02235410  0.68779597  0.17787151    -0.71200
O36         O  0.95709555  0.75404367  0.17540399    -0.71400
V37         V  0.97369059  0.63393851  0.18078594     1.35200
V38         V  0.98928714  0.71839890  0.17667711     1.35200
C39         C  0.93758990  0.72239406  0.17694511     0.78000
C40         C  0.02595082  0.63357753  0.18094762     0.78100
C41         C  0.98147811  0.70215521  0.20089996     0.77900
C42         C  0.98155491  0.64622152  0.15673417     0.77900
O43         O  0.03847193  0.74736462  0.30689489    -0.71200
O44         O  0.97107683  0.80859978  0.30213378    -0.71500
O45         O  0.00248064  0.79668686  0.32089297    -0.71300
O46         O  0.00749040  0.76243020  0.28805151    -0.71300
O47         O  0.98920237  0.67513221  0.29065624    -0.71300
O48         O  0.99011051  0.70450793  0.32456354    -0.71300
O49         O  0.95662585  0.71920966  0.30661719    -0.71200
O50         O  0.02256598  0.65686305  0.30855686    -0.71400
V51         V  0.00463722  0.77708831  0.30456794     1.35200
V52         V  0.98999136  0.69055744  0.30756374     1.35200
C53         C  0.04171421  0.69065235  0.30818556     0.78000
C54         C  0.95236288  0.77342358  0.30371229     0.78100
C55         C  0.99563451  0.75721374  0.32833498     0.77900
C56         C  0.99843615  0.71454628  0.28364951     0.77900
O57         O  0.44348359  0.18322539  0.17704568    -0.71200
O58         O  0.51080777  0.12261945  0.18167718    -0.71500
O59         O  0.47519089  0.17245838  0.19566280    -0.71300
O60         O  0.47885657  0.13012074  0.16322343    -0.71300
O61         O  0.49182400  0.22065455  0.15855727    -0.71300
O62         O  0.49250485  0.26008454  0.19215993    -0.71300
O63         O  0.52527524  0.21126192  0.17664423    -0.71200
O64         O  0.45924934  0.27290994  0.17396572    -0.71400
V65         V  0.47731683  0.15391563  0.17931964     1.35200
V66         V  0.49187165  0.23963549  0.17539301     1.35200
C67         C  0.44015643  0.23930931  0.17499457     0.78000
C68         C  0.52949455  0.15719028  0.17967858     0.78100
C69         C  0.48375529  0.22185725  0.19957231     0.77900
C70         C  0.48603493  0.16707788  0.15537757     0.77900
O71         O  0.53797143  0.23880978  0.30654659    -0.71200
O72         O  0.47204615  0.30806673  0.30183689    -0.71500
O73         O  0.50195251  0.28731201  0.32069569    -0.71300
O74         O  0.50797811  0.26289125  0.28750213    -0.71300
O75         O  0.49030339  0.17419092  0.28904276    -0.71300
O76         O  0.48577702  0.19741960  0.32301850    -0.71300
O77         O  0.45577299  0.21815458  0.30389607    -0.71200
O78         O  0.52057098  0.14985680  0.30803646    -0.71400
V79         V  0.50478413  0.27238942  0.30419547     1.35200
V80         V  0.48856152  0.18650140  0.30598931     1.35200
C81         C  0.54029054  0.18191991  0.30798369     0.78000
C82         C  0.45271236  0.27402128  0.30203104     0.78100
C83         C  0.49224770  0.24814449  0.32744978     0.77900
C84         C  0.49916080  0.21618693  0.28252841     0.77900
O85         O  0.28086288  0.49213414  0.17748495    -0.71200
O86         O  0.21402114  0.55365084  0.18281705    -0.71500
O87         O  0.25152960  0.51008967  0.19672289    -0.71300
O88         O  0.24341921  0.53903020  0.16375330    -0.71300
O89         O  0.23027669  0.44668973  0.16084694    -0.71300
O90         O  0.23395817  0.42137510  0.19488504    -0.71300
O91         O  0.19915248  0.46318962  0.17950383    -0.71200
O92         O  0.26499329  0.40136319  0.17627726    -0.71400
V93         V  0.24724934  0.52190459  0.18014130     1.35200
V94         V  0.23247558  0.43477326  0.17790268     1.35200
C95         C  0.28409221  0.43540028  0.17628082     0.78000
C96         C  0.19520911  0.51821018  0.18183208     0.78100
C97         C  0.24333188  0.46247106  0.20153540     0.77900
C98         C  0.23524609  0.49895135  0.15670566     0.77900
O99         O  0.19934486  0.43120420  0.30775387    -0.71200
O100        O  0.26627253  0.36767626  0.30303421    -0.71500
O101        O  0.23486941  0.37799790  0.32165067    -0.71300
O102        O  0.23023542  0.41697048  0.28909195    -0.71300
O103        O  0.24847207  0.50401047  0.29216682    -0.71300
O104        O  0.24842384  0.46845724  0.32603924    -0.71300
O105        O  0.28130522  0.45602934  0.30795633    -0.71200
O106        O  0.21586128  0.52057762  0.31033566    -0.71400
V107        V  0.23294047  0.40021910  0.30548187     1.35200
V108        V  0.24816369  0.48569274  0.30907301     1.35200
C109        C  0.19648718  0.48775357  0.30949509     0.78000
C110        C  0.28521394  0.40197408  0.30485454     0.78100
C111        C  0.24236057  0.41534209  0.32940508     0.77900
C112        C  0.23907594  0.46538264  0.28493511     0.77900
O113        O  0.18195381  0.89708860  0.80670953    -0.71200
O114        O  0.24790140  0.82932440  0.80143501    -0.71500
O115        O  0.21871305  0.84755131  0.82057442    -0.71300
O116        O  0.21096230  0.87505547  0.78747782    -0.71300
O117        O  0.22956951  0.96262107  0.78907579    -0.71300
O118        O  0.23349017  0.93857116  0.82326145    -0.71300
O119        O  0.26391640  0.91892888  0.80437211    -0.71200
O120        O  0.19913696  0.98645115  0.80788975    -0.71400
V121        V  0.21510873  0.86408415  0.80410898     1.35200
V122        V  0.23111783  0.95004404  0.80613385     1.35200
C123        C  0.17953789  0.95410083  0.80794304     0.78000
C124        C  0.26715391  0.86358158  0.80208431     0.78100
C125        C  0.22755096  0.88713644  0.82756229     0.77900
C126        C  0.21987031  0.92151936  0.78250991     0.77900
O127        O  0.26452952  0.93825720  0.67560406    -0.71200
O128        O  0.19865512  0.00449678  0.68175848    -0.71500
O129        O  0.23555261  0.95291580  0.69494982    -0.71300
O130        O  0.22807210  0.99361430  0.66249933    -0.71300
O131        O  0.21310525  0.90421579  0.65831384    -0.71300
O132        O  0.21669852  0.86646822  0.69209328    -0.71300
O133        O  0.18236196  0.91671967  0.67733496    -0.71200
O134        O  0.24711768  0.84989503  0.67304347    -0.71400
V135        V  0.23141297  0.97053966  0.67861088     1.35200
V136        V  0.21519196  0.88589333  0.67523546     1.35200
C137        C  0.26684219  0.88176162  0.67365675     0.78000
C138        C  0.17926939  0.97108660  0.68042532     0.78100
C139        C  0.22693739  0.90443826  0.69920837     0.77900
C140        C  0.21936521  0.95709518  0.65486694     0.77900
O141        O  0.52011964  0.70289417  0.80736645    -0.71200
O142        O  0.45325179  0.76778645  0.80304881    -0.71500
O143        O  0.48529920  0.75608909  0.82156493    -0.71300
O144        O  0.48836352  0.71873142  0.78882454    -0.71300
O145        O  0.47167624  0.63000694  0.79188632    -0.71300
O146        O  0.46996548  0.66707818  0.82567728    -0.71300
O147        O  0.43805422  0.67839506  0.80694032    -0.71200
O148        O  0.50344430  0.61434517  0.81061000    -0.71400
V149        V  0.48651713  0.73454826  0.80530300     1.35200
V150        V  0.47116923  0.64908358  0.80874574     1.35200
C151        C  0.52288952  0.64661266  0.80945055     0.78000
C152        C  0.43428249  0.73302227  0.80420862     0.78100
C153        C  0.47678065  0.71952376  0.82918519     0.77900
C154        C  0.48007393  0.66964253  0.78465099     0.77900
O155        O  0.42678750  0.63238245  0.67811653    -0.71200
O156        O  0.49355662  0.56763473  0.68313092    -0.71500
O157        O  0.45791404  0.61673171  0.69704689    -0.71300
O158        O  0.46228912  0.57953467  0.66432745    -0.71300
O159        O  0.47634455  0.66998591  0.66037123    -0.71300
O160        O  0.47604631  0.70399833  0.69418289    -0.71300
O161        O  0.50895650  0.65626470  0.67874877    -0.71200
O162        O  0.44357173  0.72149978  0.67576243    -0.71400
V163        V  0.46035879  0.60086489  0.68057512     1.35200
V164        V  0.47583448  0.68634031  0.67730651     1.35200
C165        C  0.42405964  0.68890267  0.67629993     0.78000
C166        C  0.51261476  0.60190239  0.68171348     0.78100
C167        C  0.46718645  0.66461134  0.70132696     0.77900
C168        C  0.47009958  0.61736919  0.65678099     0.77900
O169        O  0.76745180  0.45786389  0.67791193    -0.71200
O170        O  0.70093567  0.52229832  0.68326517    -0.71500
O171        O  0.73778308  0.47469775  0.69702634    -0.71300
O172        O  0.73067298  0.50914230  0.66422453    -0.71300
O173        O  0.71566427  0.41894209  0.66077166    -0.71300
O174        O  0.72052771  0.38602574  0.69452482    -0.71300
O175        O  0.68536532  0.43256973  0.67991588    -0.71200
O176        O  0.75057659  0.36881046  0.67549798    -0.71400
V177        V  0.73396982  0.48919671  0.68052441     1.35200
V178        V  0.71841843  0.40325420  0.67769679     1.35200
C179        C  0.77011915  0.40131513  0.67614009     0.78000
C180        C  0.68185961  0.48752227  0.68245947     0.78100
C181        C  0.72984338  0.42594310  0.70146607     0.77900
C182        C  0.72164895  0.47121973  0.65694558     0.77900
O183        O  0.68059733  0.38599690  0.80717449    -0.71200
O184        O  0.74773022  0.32340561  0.80287267    -0.71500
O185        O  0.71606378  0.33383519  0.82130541    -0.71300
O186        O  0.71204691  0.37230193  0.78863315    -0.71300
O187        O  0.72885123  0.46089006  0.79185207    -0.71300
O188        O  0.73052110  0.42375470  0.82550554    -0.71300
O189        O  0.76257738  0.41295543  0.80703241    -0.71200
O190        O  0.69684375  0.47524622  0.81027167    -0.71400
V191        V  0.71434630  0.35568782  0.80508279     1.35200
V192        V  0.72931763  0.44155439  0.80863346     1.35200
C193        C  0.67755578  0.44224321  0.80915984     0.78000
C194        C  0.76656590  0.35845142  0.80426046     0.78100
C195        C  0.72429782  0.37094805  0.82894244     0.77900
C196        C  0.72025294  0.42163866  0.78456748     0.77900
O197        O  0.92721052  0.14438423  0.67916864    -0.71200
O198        O  0.99201424  0.06851637  0.68337486    -0.71500
O199        O  0.95770699  0.11952325  0.69788834    -0.71300
O200        O  0.96121404  0.08984368  0.66484058    -0.71300
O201        O  0.97911059  0.17721982  0.66177630    -0.71300
O202        O  0.97669135  0.20625826  0.69575025    -0.71300
O203        O  0.00967289  0.15645644  0.68066644    -0.71200
O204        O  0.94614742  0.23104766  0.67687630    -0.71400
V205        V  0.95979969  0.10741967  0.68126104     1.35200
V206        V  0.97745500  0.19119747  0.67879445     1.35200
C207        C  0.92588016  0.20121123  0.67741746     0.78000
C208        C  0.01189473  0.10057454  0.68269173     0.78100
C209        C  0.96725167  0.16618894  0.70256476     0.77900
C210        C  0.97120942  0.12677509  0.65771728     0.77900
O211        O  0.02146925  0.21406399  0.80884299    -0.71200
O212        O  0.95391594  0.27339390  0.80358648    -0.71500
O213        O  0.98495065  0.26499384  0.82241384    -0.71300
O214        O  0.99067746  0.22626694  0.78988561    -0.71300
O215        O  0.97409340  0.13736204  0.79283803    -0.71300
O216        O  0.97154784  0.17415892  0.82653915    -0.71300
O217        O  0.93969553  0.18347153  0.80781676    -0.71200
O218        O  0.00579028  0.12405961  0.81160813    -0.71400
V219        V  0.98752263  0.24287559  0.80626909     1.35200
V220        V  0.97314098  0.15640861  0.80966222     1.35200
C221        C  0.02487029  0.15783567  0.81077096     0.78000
C222        C  0.93531346  0.23767446  0.80495825     0.78100
C223        C  0.97705367  0.22748996  0.82999099     0.77900
C224        C  0.98289008  0.17673971  0.78567378     0.77900
O225        O  0.77381886  0.64368098  0.55777486    -0.71200
O226        O  0.70696896  0.57704718  0.55416510    -0.71500
O227        O  0.74187179  0.62465133  0.53942621    -0.71300
O228        O  0.73938661  0.59200562  0.57239456    -0.71300
O229        O  0.72270396  0.68016601  0.57602086    -0.71300
O230        O  0.72593928  0.71442554  0.54218094    -0.71300
O231        O  0.69180160  0.66739075  0.55710803    -0.71200
O232        O  0.75680675  0.73173169  0.56115785    -0.71400
V233        V  0.74026622  0.61112952  0.55602241     1.35200
V234        V  0.72472849  0.69678321  0.55907633     1.35200
C235        C  0.77634534  0.70001458  0.55989036     0.78000
C236        C  0.68800309  0.61208714  0.55505088     0.78100
C237        C  0.73420182  0.67394873  0.53508647     0.77900
C238        C  0.72988410  0.62848805  0.57976737     0.77900
O239        O  0.69208094  0.72146248  0.42895490    -0.71200
O240        O  0.75875702  0.78966350  0.43280318    -0.71500
O241        O  0.72649427  0.77614606  0.41449027    -0.71300
O242        O  0.72414962  0.73940100  0.44732326    -0.71300
O243        O  0.74059071  0.65047318  0.44421086    -0.71300
O244        O  0.74329881  0.68851871  0.41051112    -0.71300
O245        O  0.77439303  0.70014966  0.42946044    -0.71200
O246        O  0.70955880  0.63435448  0.42525976    -0.71400
V247        V  0.72560033  0.75488999  0.43079618     1.35200
V248        V  0.74153151  0.67003067  0.42739021     1.35200
C249        C  0.68978680  0.66511571  0.42674398     0.78000
C250        C  0.77791316  0.75528102  0.43181782     0.78100
C251        C  0.73612869  0.74059873  0.40697467     0.77900
C252        C  0.73216947  0.68997604  0.45146821     0.77900
O253        O  0.03218641  0.91258542  0.42965923    -0.71200
O254        O  0.96493338  0.84762340  0.43251794    -0.71500
O255        O  0.99821338  0.85948641  0.41474881    -0.71300
O256        O  0.99910285  0.89696707  0.44752164    -0.71300
O257        O  0.98124074  0.98415735  0.44412478    -0.71300
O258        O  0.98474410  0.95009819  0.41041455    -0.71300
O259        O  0.95014030  0.93628696  0.42766414    -0.71200
O260        O  0.01565680  0.00172700  0.42685376    -0.71400
V261        V  0.99838605  0.88090604  0.43102818     1.35200
V262        V  0.98331842  0.96641170  0.42730975     1.35200
C263        C  0.03505666  0.96926941  0.42806475     0.78000
C264        C  0.94609398  0.88186875  0.43046110     0.78100
C265        C  0.99119780  0.89740383  0.40700668     0.77900
C266        C  0.98972602  0.94525583  0.45150339     0.77900
O267        O  0.93060396  0.97297214  0.55700438    -0.71200
O268        O  0.99749199  0.03830311  0.55353080    -0.71500
O269        O  0.96250069  0.99184728  0.53874072    -0.71300
O270        O  0.96553150  0.02334073  0.57174876    -0.71300
O271        O  0.97916486  0.93206000  0.57533960    -0.71300
O272        O  0.98084366  0.90452996  0.54134535    -0.71300
O273        O  0.01275040  0.94904048  0.55761853    -0.71200
O274        O  0.94737660  0.88344511  0.55886778    -0.71400
V275        V  0.96424488  0.00485286  0.55534665     1.35200
V276        V  0.97961653  0.91887262  0.55828254     1.35200
C277        C  0.92791641  0.91600766  0.55813245     0.78000
C278        C  0.01645884  0.00367579  0.55493062     0.78100
C279        C  0.97218013  0.94489565  0.53432762     0.77900
C280        C  0.97301668  0.98426244  0.57916234     0.77900
O281        O  0.19150322  0.23523025  0.42709361    -0.71200
O282        O  0.25845655  0.29730950  0.43287746    -0.71500
O283        O  0.22823265  0.28773562  0.41372744    -0.71300
O284        O  0.22152230  0.24907425  0.44628548    -0.71300
O285        O  0.23824891  0.16023504  0.44339071    -0.71300
O286        O  0.24302709  0.19798862  0.40977183    -0.71300
O287        O  0.27340607  0.20749669  0.42911047    -0.71200
O288        O  0.20794172  0.14617817  0.42414129    -0.71400
V289        V  0.22516458  0.26554566  0.42988781     1.35200
V290        V  0.24026190  0.17963615  0.42661864     1.35200
C291        C  0.18857525  0.17888957  0.42508699     0.78000
C292        C  0.27728135  0.26183727  0.43199400     0.78100
C293        C  0.23723890  0.25106683  0.40625580     0.77900
C294        C  0.22919822  0.19955136  0.45051188     0.77900
O295        O  0.27188217  0.14412951  0.55652969    -0.71200
O296        O  0.20492117  0.08008084  0.55188320    -0.71500
O297        O  0.24006407  0.13149889  0.53790216    -0.71300
O298        O  0.23687250  0.08893617  0.57043127    -0.71300
O299        O  0.22239667  0.17812617  0.57506686    -0.71300
O300        O  0.22261922  0.21888242  0.54145433    -0.71300
O301        O  0.18980167  0.16848172  0.55665246    -0.71200
O302        O  0.25539126  0.23268171  0.55994421    -0.71400
V303        V  0.23821352  0.11298561  0.55428673     1.35200
V304        V  0.22296057  0.19796325  0.55823150     1.35200
C305        C  0.27480901  0.20026196  0.55874385     0.78000
C306        C  0.18598152  0.11432106  0.55358918     0.78100
C307        C  0.23130431  0.18070559  0.53399564     0.77900
C308        C  0.22858418  0.12476224  0.57825440     0.77900
O309        O  0.43314065  0.46038247  0.55640576    -0.71200
O310        O  0.50052281  0.52399575  0.55299985    -0.71500
O311        O  0.46519885  0.47773854  0.53813779    -0.71300
O312        O  0.46814646  0.51037877  0.57103439    -0.71300
O313        O  0.48163420  0.41916133  0.57480800    -0.71300
O314        O  0.48274426  0.38961140  0.54083107    -0.71300
O315        O  0.51512106  0.43416659  0.55707487    -0.71200
O316        O  0.44935874  0.37047126  0.55856557    -0.71400
V317        V  0.46698291  0.49132894  0.55470344     1.35200
V318        V  0.48184344  0.40498344  0.55777683     1.35200
C319        C  0.43006481  0.40366295  0.55785571     0.78000
C320        C  0.51929335  0.48897079  0.55465182     0.78100
C321        C  0.47410459  0.42979076  0.53376231     0.77900
C322        C  0.47544748  0.47154353  0.57852289     0.77900
O323        O  0.53346921  0.39761475  0.42827958    -0.71200
O324        O  0.46673770  0.32944217  0.43183360    -0.71500
O325        O  0.49856520  0.34571040  0.41352047    -0.71300
O326        O  0.50188982  0.37708463  0.44650714    -0.71300
O327        O  0.48369561  0.46461083  0.44400466    -0.71300
O328        O  0.48355173  0.43584495  0.41004385    -0.71300
O329        O  0.45117508  0.41870461  0.42806905    -0.71200
O330        O  0.51604617  0.48614376  0.42607432    -0.71400
V331        V  0.49993811  0.36417880  0.42993214     1.35200
V332        V  0.48405107  0.44966106  0.42706212     1.35200
C333        C  0.53579657  0.45471294  0.42706197     0.78000
C334        C  0.44761146  0.36384284  0.43058936     0.78100
C335        C  0.49004297  0.38396519  0.40618799     0.77900
C336        C  0.49273844  0.42452626  0.45097485     0.77900
O337        O  0.18079423  0.72926854  0.92745627    -0.71200
O338        O  0.24660942  0.79751186  0.93329289    -0.71500
O339        O  0.21658082  0.78417300  0.91400729    -0.71300
O340        O  0.21043838  0.74623979  0.94671851    -0.71300
O341        O  0.22934127  0.65980818  0.94405372    -0.71300
O342        O  0.23210207  0.69493251  0.91026542    -0.71300
O343        O  0.26295181  0.70932371  0.92933703    -0.71200
O344        O  0.19847817  0.64113697  0.92508928    -0.71400
V345        V  0.21387988  0.76256156  0.93027585     1.35200
V346        V  0.23030288  0.67792449  0.92719848     1.35200
C347        C  0.17867457  0.67257183  0.92566765     0.78000
C348        C  0.26596415  0.76382643  0.93233409     0.78100
C349        C  0.22544439  0.74710120  0.90655196     0.77900
C350        C  0.21951771  0.69832861  0.95109711     0.77900
O351        O  0.27527541  0.66365792  0.05737975    -0.71200
O352        O  0.20926378  0.59508787  0.05186641    -0.71500
O353        O  0.24501701  0.64744655  0.03831368    -0.71300
O354        O  0.23999840  0.60757239  0.07087477    -0.71300
O355        O  0.22409981  0.69608272  0.07495042    -0.71300
O356        O  0.22629208  0.73383657  0.04129045    -0.71300
O357        O  0.19284163  0.68292490  0.05602209    -0.71200
O358        O  0.25742642  0.75117024  0.06023084    -0.71400
V359        V  0.24209529  0.63017620  0.05469885     1.35200
V360        V  0.22558487  0.71440125  0.05809337     1.35200
C361        C  0.27733656  0.72014814  0.05943692     0.78000
C362        C  0.18981734  0.62838590  0.05303794     0.78100
C363        C  0.23597622  0.69574912  0.03411148     0.77900
C364        C  0.23112140  0.64386580  0.07845369     0.77900
O365        O  0.68537048  0.19704485  0.92795071    -0.71200
O366        O  0.75154869  0.26608739  0.93241616    -0.71500
O367        O  0.71998939  0.25190699  0.91390961    -0.71300
O368        O  0.71647312  0.21497131  0.94658618    -0.71300
O369        O  0.73538621  0.12865631  0.94372834    -0.71300
O370        O  0.73503058  0.16243663  0.90989369    -0.71300
O371        O  0.76758548  0.17799259  0.92815655    -0.71200
O372        O  0.70287620  0.10883935  0.92542525    -0.71400
V373        V  0.71859586  0.23071346  0.93013682     1.35200
V374        V  0.73481320  0.14605243  0.92684128     1.35200
C375        C  0.68310770  0.14031515  0.92623693     0.78000
C376        C  0.77087242  0.23283465  0.93087817     0.78100
C377        C  0.72834276  0.21482787  0.90635656     0.77900
C378        C  0.72593592  0.16736110  0.95085001     0.77900
O379        O  0.77742650  0.14865832  0.05707625    -0.71200
O380        O  0.71011104  0.08480812  0.05228675    -0.71500
O381        O  0.74648122  0.13216210  0.03823711    -0.71300
O382        O  0.74144515  0.09735589  0.07102746    -0.71300
O383        O  0.72873185  0.18925029  0.07471700    -0.71300
O384        O  0.72772537  0.21892197  0.04079529    -0.71300
O385        O  0.69527937  0.17379352  0.05680882    -0.71200
O386        O  0.76076856  0.23827613  0.05873584    -0.71400
V387        V  0.74362320  0.11739208  0.05472690     1.35200
V388        V  0.72848488  0.20339466  0.05772614     1.35200
C389        C  0.78024984  0.20563153  0.05832974     0.78000
C390        C  0.69122349  0.11944832  0.05397776     0.78100
C391        C  0.73733637  0.17980894  0.03381764     0.77900
C392        C  0.73443401  0.13661684  0.07846942     0.77900
O393        O  0.52166733  0.89407971  0.92850969    -0.71200
O394        O  0.45418796  0.83512353  0.93349813    -0.71500
O395        O  0.48544838  0.84085372  0.91477711    -0.71300
O396        O  0.49049599  0.88503713  0.94729305    -0.71300
O397        O  0.47264081  0.97190496  0.94360703    -0.71300
O398        O  0.47316674  0.93185905  0.91002863    -0.71300
O399        O  0.43979943  0.92334398  0.92804657    -0.71200
O400        O  0.50593840  0.98395980  0.92562754    -0.71400
V401        V  0.48771974  0.86546759  0.93091776     1.35200
V402        V  0.47325530  0.95113434  0.92686677     1.35200
C403        C  0.52506660  0.95030635  0.92665278     0.78000
C404        C  0.43554868  0.87004374  0.93150658     0.78100
C405        C  0.47843924  0.87798515  0.90685933     0.77900
C406        C  0.48171685  0.93438233  0.95111733     0.77900
O407        O  0.43461499  0.98141611  0.05738819    -0.71200
O408        O  0.50102725  0.04881168  0.05234769    -0.71500
O409        O  0.46506668  0.99702127  0.03849101    -0.71300
O410        O  0.47004328  0.03722139  0.07106105    -0.71300
O411        O  0.48557805  0.94852505  0.07536328    -0.71300
O412        O  0.48351084  0.91036774  0.04169329    -0.71300
O413        O  0.51698756  0.96058901  0.05665965    -0.71200
O414        O  0.45223774  0.89368687  0.06036797    -0.71400
V415        V  0.46795769  0.01438818  0.05491329     1.35200
V416        V  0.48415131  0.92991638  0.05848673     1.35200
C417        C  0.43241020  0.92490327  0.05941169     0.78000
C418        C  0.52031765  0.01500018  0.05371150     0.78100
C419        C  0.47399099  0.94847467  0.03441249     0.77900
C420        C  0.47888675  0.00117604  0.07873026     0.77900
O421        O  0.02406954  0.40174701  0.92939285    -0.71200
O422        O  0.95751112  0.33310111  0.93261219    -0.71500
O423        O  0.99013484  0.34840971  0.91470601    -0.71300
O424        O  0.99179731  0.38260870  0.94753439    -0.71300
O425        O  0.97365396  0.46986290  0.94457595    -0.71300
O426        O  0.97488015  0.43777078  0.91070131    -0.71300
O427        O  0.94178215  0.42181892  0.92853265    -0.71200
O428        O  0.00669043  0.49003378  0.92668551    -0.71400
V429        V  0.99064224  0.36827474  0.93099470     1.35200
V430        V  0.97467392  0.45328496  0.92767619     1.35200
C431        C  0.02639691  0.45840861  0.92759713     0.78000
C432        C  0.93829914  0.36679371  0.93100165     0.78100
C433        C  0.98187787  0.38572956  0.90713924     0.77900
C434        C  0.98233860  0.43022438  0.95175744     0.77900
O435        O  0.93655212  0.46878618  0.05825990    -0.71200
O436        O  0.00192075  0.53977972  0.05267260    -0.71500
O437        O  0.96603966  0.48687527  0.03917626    -0.71300
O438        O  0.97209799  0.52556431  0.07176395    -0.71300
O439        O  0.98831199  0.43709817  0.07569272    -0.71300
O440        O  0.98512014  0.40067827  0.04203283    -0.71300
O441        O  0.01891723  0.45231646  0.05669532    -0.71200
O442        O  0.95492364  0.38168383  0.06095697    -0.71400
V443        V  0.96942962  0.50352361  0.05557202     1.35200
V444        V  0.98643380  0.41959996  0.05881703     1.35200
C445        C  0.93485121  0.41210306  0.06018369     0.78000
C446        C  0.02155360  0.50696569  0.05370671     0.78100
C447        C  0.97502523  0.43875949  0.03493923     0.77900
C448        C  0.98126835  0.48906476  0.07926725     0.77900
C449        C  0.98494386  0.40850047  0.98263726     0.30300
C450        C  0.99114823  0.37693524  0.99317138    -0.36000
C451        C  0.98247738  0.40265787  0.00385259     0.16300
C452        C  0.96862512  0.45569570  0.00407121     0.22100
C453        C  0.96230154  0.48710843  0.99352514    -0.34100
C454        C  0.97108102  0.46151850  0.98284103     0.16200
O455        O  0.99108018  0.39230919  0.97171140    -0.26200
C456        C  0.98117237  0.43547173  0.96480432     0.06000
C457        C  0.96844834  0.47997645  0.97120103    -0.31000
O458        O  0.96352246  0.47329739  0.01503985    -0.22900
C459        C  0.97415426  0.43107890  0.02193905    -0.02900
C460        C  0.98617407  0.38564609  0.01550435    -0.17300
H461        H  0.00218434  0.33562569  0.99304111     0.20700
H462        H  0.95163364  0.52897112  0.99367171     0.19100
H463        H  0.95831288  0.51900695  0.96777910     0.19000
H464        H  0.99697437  0.34759768  0.01890279     0.14900
C465        C  0.46758764  0.96277918  0.00340043     0.30300
C466        C  0.45927251  0.99035139  0.99270952    -0.36000
C467        C  0.47046494  0.96919203  0.98212299     0.16300
C468        C  0.48848884  0.92394251  0.98215293     0.22100
C469        C  0.49683502  0.89660088  0.99282913    -0.34100
C470        C  0.48559437  0.91751456  0.00338466     0.16200
O471        O  0.46041690  0.97712358  0.01431923    -0.26200
C472        C  0.47378845  0.94024103  0.02137731     0.06000
C473        C  0.48973211  0.90181654  0.01508236    -0.31000
O474        O  0.49542802  0.90850824  0.97127471    -0.22900
C475        C  0.48190181  0.94444799  0.96412341    -0.02900
C476        C  0.46607220  0.98365734  0.97035166    -0.17300
H477        H  0.44507343  0.02567681  0.99266213     0.20700
H478        H  0.51092387  0.86102602  0.99287445     0.19100
H479        H  0.50333497  0.86971468  0.01862366     0.19000
H480        H  0.45233206  0.01522525  0.96674130     0.14900
C481        C  0.58582925  0.02762944  0.05059833     0.30300
C482        C  0.61063635  0.00506803  0.04977725    -0.36000
C483        C  0.63009601  0.04798499  0.05087352     0.16300
C484        C  0.62527611  0.10877039  0.05269465     0.22100
C485        C  0.60048101  0.13140382  0.05339386    -0.34100
C486        C  0.58102897  0.08857077  0.05222449     0.16200
O487        O  0.56501004  0.99500333  0.05053767    -0.26200
C488        C  0.54653196  0.03536050  0.05200073     0.06000
C489        C  0.55532391  0.09460032  0.05303123    -0.31000
O490        O  0.64612468  0.14070585  0.05390361    -0.22900
C491        C  0.66466852  0.10024759  0.05279288    -0.02900
C492        C  0.65586847  0.04153941  0.05086029    -0.17300
H493        H  0.61447098  0.95721418  0.04861742     0.20700
H494        H  0.59666243  0.17897256  0.05495637     0.19100
H495        H  0.54454779  0.13536136  0.05476951     0.19000
H496        H  0.66676228  0.00033746  0.04983352     0.14900
C497        C  0.84375011  0.25436845  0.06048161     0.30300
C498        C  0.87018164  0.25010102  0.06153665    -0.36000
C499        C  0.88351393  0.30540493  0.06151577     0.16300
C500        C  0.87181565  0.36115384  0.06044936     0.22100
C501        C  0.84545988  0.36541232  0.05948997    -0.34100
C502        C  0.83216778  0.31030431  0.05958041     0.16200
O503        O  0.82736610  0.20875544  0.06014251    -0.26200
C504        C  0.80504276  0.23632995  0.05908773     0.06000
C505        C  0.80705077  0.29928294  0.05870703    -0.31000
O506        O  0.88803475  0.40684478  0.06011485    -0.22900
C507        C  0.91046585  0.37998404  0.06106914    -0.02900
C508        C  0.90873079  0.31703015  0.06201105    -0.17300
H509        H  0.87971613  0.20680718  0.06221283     0.20700
H510        H  0.83595757  0.40865544  0.05860177     0.19100
H511        H  0.79203066  0.33235308  0.05781324     0.19000
H512        H  0.92396954  0.28437049  0.06257317     0.14900
C513        C  0.82868072  0.31130770  0.93255580     0.30300
C514        C  0.84515295  0.36116234  0.93247606    -0.36000
C515        C  0.87108654  0.34740953  0.93239490     0.16300
C516        C  0.88037884  0.28887328  0.93244230     0.22100
C517        C  0.86391347  0.23906217  0.93248063    -0.34100
C518        C  0.83799821  0.25280044  0.93251978     0.16200
O519        O  0.80365678  0.31322785  0.93229701    -0.26200
C520        C  0.79700403  0.25501466  0.93206083     0.06000
C521        C  0.81759526  0.21570929  0.93219264    -0.31000
O522        O  0.90538285  0.28680380  0.93217215    -0.22900
C523        C  0.91209231  0.34494049  0.93190829    -0.02900
C524        C  0.89153381  0.38439796  0.93201803    -0.17300
H525        H  0.83827746  0.40735494  0.93233626     0.20700
H526        H  0.87078176  0.19286555  0.93234719     0.19100
H527        H  0.81749987  0.16664358  0.93184464     0.19000
H528        H  0.89168178  0.43346967  0.93172463     0.14900
C529        C  0.58931202  0.99198874  0.92518665     0.30300
C530        C  0.61566847  0.98458270  0.92458437    -0.36000
C531        C  0.63007883  0.03827966  0.92479785     0.16300
C532        C  0.61939903  0.09528294  0.92561692     0.22100
C533        C  0.59314201  0.10263357  0.92611605    -0.34100
C534        C  0.57878868  0.04919030  0.92582782     0.16200
O535        O  0.57204855  0.94838557  0.92535677    -0.26200
C536        C  0.55027099  0.97854728  0.92600668     0.06000
C537        C  0.55344117  0.04116643  0.92630547    -0.31000
O538        O  0.63640700  0.13916014  0.92607535    -0.22900
C539        C  0.65833600  0.10995027  0.92546958    -0.02900
C540        C  0.65552542  0.04716378  0.92462969    -0.17300
H541        H  0.62434234  0.94020895  0.92409517     0.20700
H542        H  0.58448161  0.14695839  0.92679211     0.19100
H543        H  0.53904626  0.07588439  0.92697477     0.19000
H544        H  0.67017901  0.01296870  0.92422687     0.14900
C545        C  0.72107819  0.18947139  0.98157544     0.30300
C546        C  0.71342298  0.22091080  0.99187525    -0.36000
C547        C  0.72533863  0.20393984  0.00259346     0.16300
C548        C  0.74341886  0.15886918  0.00307769     0.22100
C549        C  0.75117077  0.12760959  0.99275803    -0.34100
C550        C  0.73921134  0.14452501  0.98203262     0.16200
O551        O  0.71323375  0.20016482  0.97059410    -0.26200
C552        C  0.72631664  0.16147522  0.96389983     0.06000
C553        C  0.74274293  0.12519915  0.97050945    -0.31000
O554        O  0.75083816  0.14742719  0.01410692    -0.22900
C555        C  0.73752309  0.18582679  0.02077135    -0.02900
C556        C  0.72144654  0.22268173  0.01411042    -0.17300
H557        H  0.69916863  0.25607388  0.99153901     0.20700
H558        H  0.76532100  0.09221077  0.99310332     0.19100
H559        H  0.75635117  0.09255154  0.96724793     0.19000
H560        H  0.70771694  0.25514164  0.01733231     0.14900
C561        C  0.12440802  0.61118139  0.04979918     0.30300
C562        C  0.09917718  0.63126098  0.04973113    -0.36000
C563        C  0.08062080  0.58581630  0.04982547     0.16300
C564        C  0.08666192  0.52493713  0.04996006     0.22100
C565        C  0.11186324  0.50488404  0.04978099    -0.34100
C566        C  0.13040305  0.55028032  0.04971238     0.16200
O567        O  0.14458997  0.64580446  0.05068194    -0.26200
C568        C  0.16381895  0.60682254  0.05108159     0.06000
C569        C  0.15618124  0.54656901  0.05042642    -0.31000
O570        O  0.06659699  0.49022429  0.05103374    -0.22900
C571        C  0.04734831  0.52902177  0.05153088    -0.02900
C572        C  0.05485704  0.58935470  0.05071318    -0.17300
H573        H  0.09439110  0.67895807  0.05004734     0.20700
H574        H  0.11666523  0.45720134  0.05013724     0.19100
H575        H  0.16776424  0.50620081  0.05099236     0.19000
H576        H  0.04324670  0.62964946  0.05130196     0.14900
C577        C  0.36906478  0.87559922  0.06106639     0.30300
C578        C  0.34261835  0.88031842  0.06147627    -0.36000
C579        C  0.32915707  0.82530181  0.06135239     0.16300
C580        C  0.34072485  0.76925222  0.06076701     0.22100
C581        C  0.36717353  0.76450180  0.06049539    -0.34100
C582        C  0.38063405  0.81949854  0.06071151     0.16200
O583        O  0.38544684  0.92109326  0.06074745    -0.26200
C584        C  0.40781482  0.89350939  0.06029704     0.06000
C585        C  0.40585824  0.83046027  0.06029142    -0.31000
O586        O  0.32430879  0.72390267  0.06020512    -0.22900
C587        C  0.30192523  0.75145809  0.06053636    -0.02900
C588        C  0.30389622  0.81438185  0.06130034    -0.17300
H589        H  0.33315894  0.92381400  0.06171376     0.20700
H590        H  0.37661463  0.72104485  0.05998735     0.19100
H591        H  0.42093556  0.79738300  0.05977400     0.19000
H592        H  0.28878951  0.84748801  0.06143461     0.14900
C593        C  0.33109327  0.77768144  0.93607968     0.30300
C594        C  0.35594004  0.75547493  0.93640088    -0.36000
C595        C  0.37508447  0.79899203  0.93548528     0.16300
C596        C  0.36999919  0.86011681  0.93434075     0.22100
C597        C  0.34513056  0.88246276  0.93425324    -0.34100
C598        C  0.32595079  0.83889010  0.93517067     0.16200
O599        O  0.31052229  0.74444369  0.93566510    -0.26200
C600        C  0.29187629  0.78457092  0.93455995     0.06000
C601        C  0.30024224  0.84433199  0.93434109    -0.31000
O602        O  0.39064007  0.89242567  0.93289392    -0.22900
C603        C  0.40920039  0.85167644  0.93320770    -0.02900
C604        C  0.40071452  0.79265235  0.93484662    -0.17300
H605        H  0.36001034  0.70742676  0.93688127     0.20700
H606        H  0.34103659  0.93022513  0.93313097     0.19100
H607        H  0.28922555  0.88511859  0.93295559     0.19000
H608        H  0.41169969  0.75126479  0.93515208     0.14900
C609        C  0.12856999  0.56899441  0.92458602     0.30300
C610        C  0.11751916  0.51104599  0.92506842    -0.36000
C611        C  0.09103042  0.50941583  0.92545420     0.16300
C612        C  0.07652313  0.56140767  0.92523080     0.22100
C613        C  0.08756814  0.61933987  0.92471564    -0.34100
C614        C  0.11405749  0.62098856  0.92447271     0.16200
O615        O  0.15294896  0.58090431  0.92470324    -0.26200
C616        C  0.15418461  0.64126255  0.92471985     0.06000
C617        C  0.13053723  0.66881643  0.92457263    -0.31000
O618        O  0.05218299  0.54965448  0.92588687    -0.22900
C619        C  0.05094931  0.48940544  0.92660920    -0.02900
C620        C  0.07457567  0.46174552  0.92637835    -0.17300
H621        H  0.12882795  0.47015033  0.92536933     0.20700
H622        H  0.07628092  0.66029253  0.92474083     0.19100
H623        H  0.12616597  0.71676584  0.92480823     0.19000
H624        H  0.07895619  0.41385502  0.92689233     0.14900
C625        C  0.23263906  0.67240852  0.98146151     0.30300
C626        C  0.24643655  0.65089602  0.99134781    -0.36000
C627        C  0.24082688  0.67784250  0.00242517     0.16300
C628        C  0.22281390  0.72260259  0.00379664     0.22100
C629        C  0.20901787  0.74414993  0.99390509    -0.34100
C630        C  0.21465899  0.71726263  0.98281561     0.16200
O631        O  0.23577526  0.65627737  0.97013675    -0.26200
C632        C  0.21952500  0.69132260  0.96419480     0.06000
C633        C  0.20581297  0.72972188  0.97164599    -0.31000
O634        O  0.21966308  0.73855599  0.01513515    -0.22900
C635        C  0.23597313  0.70352475  0.02104420    -0.02900
C636        C  0.24972719  0.66536850  0.01356951    -0.17300
H637        H  0.26060569  0.61582647  0.99047130     0.20700
H638        H  0.19483862  0.77919135  0.99478542     0.19100
H639        H  0.19238251  0.76451131  0.96909650     0.19000
H640        H  0.26317793  0.63056868  0.01609218     0.14900
C641        C  0.48705852  0.40089794  0.50356622     0.30300
C642        C  0.49929018  0.37438531  0.49376943    -0.36000
C643        C  0.49504603  0.40229841  0.48263542     0.16300
C644        C  0.47978917  0.45262802  0.48115392     0.22100
C645        C  0.46754982  0.47909120  0.49094168    -0.34100
C646        C  0.47179893  0.45120744  0.50207068     0.16200
O647        O  0.48915956  0.38410417  0.51490959    -0.26200
C648        C  0.47497516  0.42425588  0.52068340     0.06000
C649        C  0.46366708  0.46671398  0.51313914    -0.31000
O650        O  0.47772208  0.46961960  0.46983021    -0.22900
C651        C  0.49192352  0.42961088  0.46404312    -0.02900
C652        C  0.50321567  0.38697698  0.47155640    -0.17300
H653        H  0.51131995  0.33499954  0.49475205     0.20700
H654        H  0.45553850  0.51850868  0.48995795     0.19100
H655        H  0.45206151  0.50522478  0.51555334     0.19000
H656        H  0.51483206  0.34852707  0.46911557     0.14900
C657        C  0.37854328  0.30388385  0.55875806     0.30300
C658        C  0.36665211  0.24692950  0.55810349    -0.36000
C659        C  0.34023256  0.24694686  0.55911918     0.16300
C660        C  0.32654784  0.29951171  0.56078548     0.22100
C661        C  0.33846344  0.35651423  0.56147158    -0.34100
C662        C  0.36488135  0.35657639  0.56030847     0.16200
O663        O  0.40295223  0.31416780  0.55775536    -0.26200
C664        C  0.40510095  0.37424901  0.55856034     0.06000
C665        C  0.38198997  0.40323779  0.56015289    -0.31000
O666        O  0.30200652  0.28936782  0.56112743    -0.22900
C667        C  0.29983056  0.22957409  0.55963902    -0.02900
C668        C  0.32304418  0.20069512  0.55835187    -0.17300
H669        H  0.37725913  0.20556622  0.55669582     0.20700
H670        H  0.32780933  0.39802511  0.56260325     0.19100
H671        H  0.37836426  0.45133212  0.56107309     0.19000
H672        H  0.32666181  0.15302624  0.55678461     0.14900
C673        C  0.34274490  0.27231353  0.43549744     0.30300
C674        C  0.36754318  0.24933301  0.43589766    -0.36000
C675        C  0.38697657  0.29216176  0.43469173     0.16300
C676        C  0.38209826  0.35320786  0.43324859     0.22100
C677        C  0.35738105  0.37625724  0.43307618    -0.34100
C678        C  0.33799956  0.33354349  0.43425993     0.16200
O679        O  0.32186132  0.23994531  0.43532595    -0.26200
C680        C  0.30350583  0.28086431  0.43407123     0.06000
C681        C  0.31236722  0.34006867  0.43347526    -0.31000
O682        O  0.40278145  0.38499839  0.43167513    -0.22900
C683        C  0.42130963  0.34424567  0.43214667    -0.02900
C684        C  0.41269150  0.28541841  0.43405977    -0.17300
H685        H  0.37135667  0.20125979  0.43666095     0.20700
H686        H  0.35353894  0.42398815  0.43172022     0.19100
H687        H  0.30167500  0.38116683  0.43188407     0.19000
H688        H  0.42362049  0.24402425  0.43464540     0.14900
C689        C  0.22122659  0.21419081  0.48142554     0.30300
C690        C  0.21343830  0.24330985  0.49201372    -0.36000
C691        C  0.22214002  0.21763697  0.50278992     0.16300
C692        C  0.23735646  0.16681551  0.50300455     0.22100
C693        C  0.24507631  0.13773708  0.49244507    -0.34100
C694        C  0.23637395  0.16326591  0.48170470     0.16200
O695        O  0.21612583  0.23174547  0.47039912    -0.26200
C696        C  0.22796603  0.19137364  0.46353442     0.06000
C697        C  0.24085675  0.14743745  0.47006124    -0.31000
O698        O  0.24289371  0.14936826  0.51396262    -0.22900
C699        C  0.23127251  0.18942916  0.52094691    -0.02900
C700        C  0.21799650  0.23332144  0.51451755    -0.17300
H701        H  0.20157510  0.28328563  0.49184264     0.20700
H702        H  0.25704576  0.09794303  0.49261193     0.19100
H703        H  0.25265154  0.11107951  0.46673806     0.19000
H704        H  0.20640294  0.26979046  0.51794861     0.14900
C705        C  0.08168085  0.01740150  0.55127628     0.30300
C706        C  0.10658475  0.99597287  0.55019516    -0.36000
C707        C  0.12563613  0.04013935  0.55068971     0.16300
C708        C  0.12034206  0.10098652  0.55214986     0.22100
C709        C  0.09546208  0.12245277  0.55301470    -0.34100
C710        C  0.07645109  0.07840997  0.55250215     0.16200
O711        O  0.06117510  0.98383902  0.55181606    -0.26200
C712        C  0.04257790  0.02380663  0.55328986     0.06000
C713        C  0.05087644  0.08350427  0.55369470    -0.31000
O714        O  0.14088276  0.13409302  0.55311883    -0.22900
C715        C  0.15968207  0.09432697  0.55220843    -0.02900
C716        C  0.15140813  0.03495560  0.55061178    -0.17300
H717        H  0.11081374  0.94812577  0.54937681     0.20700
H718        H  0.09128079  0.17003902  0.55433028     0.19100
H719        H  0.03985270  0.12417586  0.55514782     0.19000
H720        H  0.16264074  0.99408193  0.54994305     0.14900
C721        C  0.08578832  0.07107518  0.42678615     0.30300
C722        C  0.09707715  0.12877496  0.42627904    -0.36000
C723        C  0.12351955  0.12975874  0.42543298     0.16300
C724        C  0.13772972  0.07734123  0.42506135     0.22100
C725        C  0.12645443  0.01965248  0.42566493    -0.34100
C726        C  0.10002369  0.01867054  0.42657289     0.16200
O727        O  0.06140320  0.05987643  0.42742188    -0.26200
C728        C  0.05985100  0.99956469  0.42767549     0.06000
C729        C  0.08334051  0.97129063  0.42724170    -0.31000
O730        O  0.16212246  0.08851969  0.42447838    -0.22900
C731        C  0.16373037  0.14883824  0.42452641    -0.02900
C732        C  0.14025689  0.17713094  0.42511237    -0.17300
H733        H  0.08598709  0.17000831  0.42655201     0.20700
H734        H  0.13755977  0.97842675  0.42549215     0.19100
H735        H  0.08745892  0.92319838  0.42721211     0.19000
H736        H  0.13619105  0.22519541  0.42555380     0.14900
C737        C  0.99162842  0.92599608  0.48241333     0.30300
C738        C  0.99666997  0.89356198  0.49296632    -0.36000
C739        C  0.98638555  0.91764774  0.50345522     0.16300
C740        C  0.97232533  0.97037376  0.50351833     0.22100
C741        C  0.96740438  0.00311233  0.49295275    -0.34100
C742        C  0.97756313  0.97873265  0.48242303     0.16200
O743        O  0.99830113  0.90956365  0.47158363    -0.26200
C744        C  0.98850556  0.95213946  0.46451617     0.06000
C745        C  0.97542339  0.99679109  0.47072614    -0.31000
O746        O  0.96486737  0.98513702  0.51435228    -0.22900
C747        C  0.97411608  0.94120382  0.52128841    -0.02900
C748        C  0.98770357  0.89778876  0.51502486    -0.17300
H749        H  0.00753395  0.85197535  0.49295449     0.20700
H750        H  0.95625214  0.04425585  0.49294228     0.19100
H751        H  0.96499117  0.03497727  0.46713271     0.19000
H752        H  0.99771314  0.85873016  0.51852018     0.14900
C753        C  0.83618236  0.83144629  0.43279680     0.30300
C754        C  0.85296234  0.88032242  0.43172727    -0.36000
C755        C  0.87877493  0.86553941  0.43181320     0.16300
C756        C  0.88768498  0.80694215  0.43295946     0.22100
C757        C  0.87090488  0.75803230  0.43401603    -0.34100
C758        C  0.84508073  0.77279218  0.43386201     0.16200
O759        O  0.81120350  0.83430784  0.43237225    -0.26200
C760        C  0.80411477  0.77657420  0.43314617     0.06000
C761        C  0.82439707  0.73656726  0.43411845    -0.31000
O762        O  0.91266508  0.80383828  0.43271931    -0.22900
C763        C  0.91971964  0.86133255  0.43134713    -0.02900
C764        C  0.89942430  0.90142038  0.43070625    -0.17300
H765        H  0.84638440  0.92648149  0.43069847     0.20700
H766        H  0.87747227  0.71171523  0.43473078     0.19100
H767        H  0.82393335  0.68752954  0.43454045     0.19000
H768        H  0.89987273  0.95016821  0.42957629     0.14900
C769        C  0.62665512  0.61349483  0.42737114     0.30300
C770        C  0.60025383  0.61695534  0.42834560    -0.36000
C771        C  0.58714473  0.56149705  0.42783009     0.16300
C772        C  0.59899393  0.50606109  0.42659694     0.22100
C773        C  0.62540105  0.50260333  0.42563387    -0.34100
C774        C  0.63848824  0.55813458  0.42599212     0.16200
O775        O  0.64278031  0.65955625  0.42765627    -0.26200
C776        C  0.66523237  0.63315067  0.42632908     0.06000
C777        C  0.66357764  0.57026724  0.42524620    -0.31000
O778        O  0.58285035  0.46002887  0.42624312    -0.22900
C779        C  0.56035144  0.48667435  0.42714358    -0.02900
C780        C  0.56200581  0.54956318  0.42818642    -0.17300
H781        H  0.59056614  0.65986638  0.42935443     0.20700
H782        H  0.63508176  0.45971063  0.42458327     0.19100
H783        H  0.67882649  0.53792064  0.42428130     0.19000
H784        H  0.54674660  0.58196007  0.42905050     0.14900
C785        C  0.57803890  0.56317933  0.55345946     0.30300
C786        C  0.59503386  0.61192590  0.55333113    -0.36000
C787        C  0.62077402  0.59649920  0.55343754     0.16300
C788        C  0.62943122  0.53740672  0.55366260     0.22100
C789        C  0.61243535  0.48866629  0.55385311    -0.34100
C790        C  0.58668419  0.50408432  0.55374752     0.16200
O791        O  0.55306696  0.56681086  0.55353089    -0.26200
C792        C  0.54573813  0.50912387  0.55389701     0.06000
C793        C  0.56585435  0.46840369  0.55406148    -0.31000
O794        O  0.65440195  0.53383260  0.55396718    -0.22900
C795        C  0.66168886  0.59155939  0.55394081    -0.02900
C796        C  0.64157053  0.63224090  0.55361661    -0.17300
H797        H  0.58867863  0.65855400  0.55324156     0.20700
H798        H  0.61879891  0.44206919  0.55415937     0.19100
H799        H  0.56517547  0.41937858  0.55447294     0.19000
H800        H  0.64222142  0.68131645  0.55373669     0.14900
C801        C  0.82628373  0.80359812  0.56096314     0.30300
C802        C  0.83717398  0.86172664  0.56149419    -0.36000
C803        C  0.86343930  0.86433706  0.55996235     0.16300
C804        C  0.87782684  0.81299024  0.55813044     0.22100
C805        C  0.86692722  0.75500808  0.55752133    -0.34100
C806        C  0.84069325  0.75242118  0.55900273     0.16200
O807        O  0.80208146  0.79096401  0.56186220    -0.26200
C808        C  0.80088427  0.73101771  0.56045062     0.06000
C809        C  0.82436346  0.70439167  0.55864574    -0.31000
O810        O  0.90201672  0.82532137  0.55719114    -0.22900
C811        C  0.90330608  0.88531621  0.55835547    -0.02900
C812        C  0.87983979  0.91239246  0.56003497    -0.17300
H813        H  0.82592006  0.90205023  0.56294775     0.20700
H814        H  0.87816040  0.71472640  0.55598888     0.19100
H815        H  0.82865685  0.65711927  0.55699563     0.19000
H816        H  0.87559488  0.95995502  0.56135321     0.14900
C817        C  0.72607083  0.70617726  0.48245698     0.30300
C818        C  0.71922345  0.73673375  0.49300671    -0.36000
C819        C  0.72698632  0.70973507  0.50378461     0.16300
C820        C  0.74045993  0.65617591  0.50409672     0.22100
C821        C  0.74732706  0.62557132  0.49353229    -0.34100
C822        C  0.73957519  0.65265236  0.48273748     0.16200
O823        O  0.72131322  0.72446807  0.47145776    -0.26200
C824        C  0.73176303  0.68222292  0.46454179     0.06000
C825        C  0.74340719  0.63608667  0.47104475    -0.31000
O826        O  0.74518622  0.63813991  0.51513102    -0.22900
C827        C  0.73474964  0.68071759  0.52199269    -0.02900
C828        C  0.72317217  0.72666017  0.51543768    -0.17300
H829        H  0.70864604  0.77873217  0.49280734     0.20700
H830        H  0.75792117  0.58359728  0.49373114     0.19100
H831        H  0.75379337  0.59742928  0.46767697     0.19000
H832        H  0.71282374  0.76549038  0.51875418     0.14900
C833        C  0.97734715  0.30189249  0.88080898     0.30300
C834        C  0.97679754  0.24818238  0.87406842    -0.36000
C835        C  0.97450051  0.25536143  0.86164393     0.16300
C836        C  0.97313779  0.31175599  0.85630042     0.22100
C837        C  0.97323829  0.36550330  0.86306592    -0.34100
C838        C  0.97530996  0.35828183  0.87551203     0.16200
O839        O  0.98010273  0.30538413  0.89248210    -0.26200
C840        C  0.97955175  0.36455612  0.89476983     0.06000
C841        C  0.97649776  0.40009736  0.88457099    -0.31000
O842        O  0.97310482  0.30825438  0.84454727    -0.22900
C843        C  0.97417375  0.24902092  0.84230677    -0.02900
C844        C  0.97481110  0.21353869  0.85259372    -0.17300
H845        H  0.97854571  0.20398344  0.87822055     0.20700
H846        H  0.97233335  0.40978245  0.85888932     0.19100
H847        H  0.97568089  0.44904233  0.88392242     0.19000
H848        H  0.97671730  0.16478197  0.85328571     0.14900
C849        C  0.97481093  0.04742880  0.63074493     0.30300
C850        C  0.97390898  0.99525541  0.62352403    -0.36000
C851        C  0.97545360  0.00499928  0.61113461     0.16300
C852        C  0.97744132  0.06236494  0.60627556     0.22100
C853        C  0.97880555  0.11446026  0.61350916    -0.34100
C854        C  0.97752584  0.10466383  0.62590770     0.16200
O855        O  0.97250958  0.04874062  0.64246253    -0.26200
C856        C  0.97403744  0.10733864  0.64523572     0.06000
C857        C  0.97738106  0.14459746  0.63531221    -0.31000
O858        O  0.97708446  0.06152121  0.59449565    -0.22900
C859        C  0.97519578  0.00297352  0.59172734    -0.02900
C860        C  0.97427336  0.96529654  0.60170993    -0.17300
H861        H  0.97166170  0.95037468  0.62730406     0.20700
H862        H  0.98025307  0.15949577  0.60971168     0.19100
H863        H  0.97860122  0.19358299  0.63503589     0.19000
H864        H  0.97208450  0.91650206  0.60197419     0.14900
C865        C  0.97997857  0.19405029  0.73292687     0.30300
C866        C  0.99127416  0.22233332  0.74284310    -0.36000
C867        C  0.98738829  0.19414139  0.75395415     0.16300
C868        C  0.97334727  0.14179808  0.75533150     0.22100
C869        C  0.96220683  0.11319567  0.74538645    -0.34100
C870        C  0.96602954  0.14153731  0.73426200     0.16200
O871        O  0.98152861  0.21186260  0.72163480    -0.26200
C872        C  0.96828378  0.17022553  0.71569275     0.06000
C873        C  0.95817674  0.12561049  0.72309793    -0.31000
O874        O  0.97078258  0.12592725  0.76670889    -0.22900
C875        C  0.98346072  0.16874274  0.77261713    -0.02900
C876        C  0.99431091  0.21184605  0.76511913    -0.17300
H877        H  0.00210848  0.26371595  0.74198466     0.20700
H878        H  0.95101370  0.07238356  0.74627086     0.19100
H879        H  0.94739816  0.08585312  0.72054455     0.19000
H880        H  0.00455211  0.25251910  0.76760725     0.14900
C881        C  0.72937630  0.28728270  0.85534445     0.30300
C882        C  0.72988901  0.23384318  0.86218044    -0.36000
C883        C  0.73122375  0.24160057  0.87463387     0.16300
C884        C  0.73173191  0.29824845  0.87991152     0.22100
C885        C  0.73169110  0.35169544  0.87306786    -0.34100
C886        C  0.73058725  0.34391158  0.86060650     0.16200
O887        O  0.72710727  0.29033435  0.84362630    -0.26200
C888        C  0.72713714  0.34950457  0.84129455     0.06000
C889        C  0.72942141  0.38537642  0.85149987    -0.31000
O890        O  0.73122465  0.29523054  0.89166821    -0.22900
C891        C  0.73069447  0.23604836  0.89399057    -0.02900
C892        C  0.73088726  0.20013410  0.88375029    -0.17300
H893        H  0.72879058  0.18940790  0.85807348     0.20700
H894        H  0.73194008  0.39616362  0.87719048     0.19100
H895        H  0.72947362  0.43436843  0.85212942     0.19000
H896        H  0.72976726  0.15121530  0.88311956     0.14900
C897        C  0.82513383  0.28421219  0.80238128     0.30300
C898        C  0.84218389  0.23557951  0.80289489    -0.36000
C899        C  0.86792926  0.25109579  0.80274408     0.16300
C900        C  0.87648352  0.31017549  0.80205327     0.22100
C901        C  0.85943941  0.35876222  0.80151118    -0.34100
C902        C  0.83371052  0.34328893  0.80174785     0.16200
O903        O  0.80020498  0.28064618  0.80299408    -0.26200
C904        C  0.79285117  0.33834127  0.80280206     0.06000
C905        C  0.81288600  0.37904202  0.80201041    -0.31000
O906        O  0.90142550  0.31415283  0.80246054    -0.22900
C907        C  0.90885728  0.25674613  0.80345194    -0.02900
C908        C  0.88882495  0.21576302  0.80366460    -0.17300
H909        H  0.83586536  0.18908073  0.80364008     0.20700
H910        H  0.86576524  0.40538648  0.80120836     0.19100
H911        H  0.81218977  0.42810942  0.80197581     0.19000
H912        H  0.88958402  0.16694614  0.80463310     0.14900
C913        C  0.71490662  0.55196577  0.63026155     0.30300
C914        C  0.71279026  0.60500676  0.62332056    -0.36000
C915        C  0.71812907  0.59876853  0.61106722     0.16300
C916        C  0.72511230  0.54395947  0.60610931     0.22100
C917        C  0.72668622  0.49075549  0.61298696    -0.34100
C918        C  0.72120804  0.49689207  0.62520258     0.16200
O919        O  0.71316309  0.54874870  0.64200946    -0.26200
C920        C  0.71795185  0.49081112  0.64450739     0.06000
C921        C  0.72285816  0.45599653  0.63439384    -0.31000
O922        O  0.73034509  0.54852755  0.59464554    -0.22900
C923        C  0.72656387  0.60681611  0.59211280    -0.02900
C924        C  0.71876868  0.64058427  0.60197555    -0.17300
H925        H  0.70811392  0.64839402  0.62727726     0.20700
H926        H  0.73245583  0.44791077  0.60912682     0.19100
H927        H  0.72874553  0.40902714  0.63398027     0.19000
H928        H  0.71448169  0.68853274  0.60240351     0.14900
C929        C  0.86280464  0.25029953  0.67547391     0.30300
C930        C  0.83644096  0.24454819  0.67540792    -0.36000
C931        C  0.82269727  0.29890186  0.67505019     0.16300
C932        C  0.83389876  0.35545421  0.67484960     0.22100
C933        C  0.86036477  0.36123883  0.67477869    -0.34100
C934        C  0.87416721  0.30666432  0.67507549     0.16200
O935        O  0.87928343  0.20538920  0.67621058    -0.26200
C936        C  0.90156283  0.23328494  0.67622078     0.06000
C937        C  0.89951472  0.29624823  0.67547639    -0.31000
O938        O  0.81713354  0.40014226  0.67504513    -0.22900
C939        C  0.79497526  0.37140445  0.67525727    -0.02900
C940        C  0.79741650  0.30855371  0.67524279    -0.17300
H941        H  0.82725261  0.20073653  0.67579492     0.20700
H942        H  0.86955410  0.40509298  0.67469005     0.19100
H943        H  0.91455703  0.32954841  0.67552510     0.19000
H944        H  0.78260639  0.27472830  0.67565339     0.14900
C945        C  0.73481187  0.44659667  0.73234753     0.30300
C946        C  0.74032911  0.47932105  0.74286313    -0.36000
C947        C  0.73060194  0.45517749  0.75351019     0.16300
C948        C  0.71653202  0.40245639  0.75368910     0.22100
C949        C  0.71108007  0.36976287  0.74320402    -0.34100
C950        C  0.72081509  0.39377997  0.73258825     0.16200
O951        O  0.74080775  0.46262230  0.72137158    -0.26200
C952        C  0.73062544  0.41949305  0.71451417     0.06000
C953        C  0.71809609  0.37504273  0.72099050    -0.31000
O954        O  0.71022974  0.38636073  0.76459144    -0.22900
C955        C  0.72029001  0.42911939  0.77154350    -0.02900
C956        C  0.73311290  0.47364397  0.76517359    -0.17300
H957        H  0.75129262  0.52075493  0.74272908     0.20700
H958        H  0.70005559  0.32841892  0.74333547     0.19100
H959        H  0.70733422  0.33684371  0.71761681     0.19000
H960        H  0.74378232  0.51176399  0.76864554     0.14900
C961        C  0.47418284  0.53670420  0.62996444     0.30300
C962        C  0.47499745  0.48414927  0.62285022    -0.36000
C963        C  0.47648123  0.49357783  0.61044664     0.16300
C964        C  0.47677316  0.55093267  0.60548595     0.22100
C965        C  0.47625592  0.60342664  0.61259771    -0.34100
C966        C  0.47509958  0.59399777  0.62499569     0.16200
O967        O  0.47230250  0.53829369  0.64170483    -0.26200
C968        C  0.47231620  0.59719211  0.64432601     0.06000
C969        C  0.47411127  0.63430036  0.63429749    -0.31000
O970        O  0.47689447  0.54956750  0.59372246    -0.22900
C971        C  0.47696070  0.49076336  0.59105599    -0.02900
C972        C  0.47689826  0.45338689  0.60109232    -0.17300
H973        H  0.47427018  0.43916033  0.62671913     0.20700
H974        H  0.47645994  0.64841828  0.60871295     0.19100
H975        H  0.47417845  0.68335613  0.63391190     0.19000
H976        H  0.47625162  0.40434809  0.60142816     0.14900
C977        C  0.57822781  0.58769787  0.68415475     0.30300
C978        C  0.60327686  0.60853172  0.68362419    -0.36000
C979        C  0.62209711  0.56408972  0.68457008     0.16300
C980        C  0.61654249  0.50331447  0.68590987     0.22100
C981        C  0.59146534  0.48257928  0.68665821    -0.34100
C982        C  0.57261773  0.52708788  0.68571135     0.16200
O983        O  0.55785037  0.62109188  0.68273423    -0.26200
C984        C  0.53884545  0.58168859  0.68342480     0.06000
C985        C  0.54683170  0.52235817  0.68535284    -0.31000
O986        O  0.63692832  0.46913579  0.68566521    -0.22900
C987        C  0.65581423  0.50844116  0.68427537    -0.02900
C988        C  0.64776765  0.56834463  0.68361815    -0.17300
H989        H  0.60774353  0.65588341  0.68219832     0.20700
H990        H  0.58697479  0.43489135  0.68751971     0.19100
H991        H  0.53542175  0.48174586  0.68598868     0.19000
H992        H  0.65900998  0.60854477  0.68203242     0.14900
C993        C  0.47280102  0.79384392  0.88034937     0.30300
C994        C  0.47069553  0.74050793  0.87347918    -0.36000
C995        C  0.47175511  0.74784753  0.86098220     0.16300
C996        C  0.47488437  0.80394862  0.85571087     0.22100
C997        C  0.47653317  0.85733841  0.86256143    -0.34100
C998        C  0.47525660  0.85004996  0.87503725     0.16200
O999        O  0.47342586  0.79703947  0.89214368    -0.26200
C1000       C  0.47596916  0.85602424  0.89445383     0.06000
C1001       C  0.47705483  0.89146569  0.88415061    -0.31000
O1002       O  0.47676998  0.80036518  0.84397700    -0.22900
C1003       C  0.47461475  0.74137848  0.84160425    -0.02900
C1004       C  0.47124704  0.70622556  0.85184050    -0.17300
H1005       H  0.46885587  0.69630549  0.87760848     0.20700
H1006       H  0.47910826  0.90135813  0.85844406     0.19100
H1007       H  0.47966585  0.94004096  0.88348404     0.19000
H1008       H  0.46951480  0.65741869  0.85247692     0.14900
C1009       C  0.62616509  0.54178873  0.81001154     0.30300
C1010       C  0.61446585  0.59893644  0.80968642    -0.36000
C1011       C  0.58800376  0.59892960  0.81008392     0.16300
C1012       C  0.57408658  0.54614621  0.81084217     0.22100
C1013       C  0.58579534  0.48887303  0.81111189    -0.34100
C1014       C  0.61229563  0.48886760  0.81061067     0.16200
O1015       O  0.65062955  0.53162736  0.80957829    -0.26200
C1016       C  0.65262499  0.47145427  0.80981943     0.06000
C1017       C  0.62935531  0.44218513  0.81042866    -0.31000
O1018       O  0.54958686  0.55659051  0.81094044    -0.22900
C1019       C  0.54771522  0.61676316  0.81019098    -0.02900
C1020       C  0.57103852  0.64563110  0.80961549    -0.17300
H1021       H  0.62527476  0.64050565  0.80905062     0.20700
H1022       H  0.57497196  0.44725856  0.81155145     0.19100
H1023       H  0.62559827  0.39393306  0.81066480     0.19000
H1024       H  0.57488819  0.69367663  0.80879953     0.14900
C1025       C  0.48235877  0.69071750  0.75369579     0.30300
C1026       C  0.48634421  0.72454517  0.74319805    -0.36000
C1027       C  0.47809906  0.69758633  0.73249181     0.16300
C1028       C  0.46680973  0.64117019  0.73222382     0.22100
C1029       C  0.46293787  0.60722333  0.74271429    -0.34100
C1030       C  0.47111713  0.63424739  0.75342722     0.16200
O1031       O  0.48762691  0.70853165  0.76466952    -0.26200
C1032       C  0.47971534  0.66311280  0.77156391     0.06000
C1033       C  0.46931698  0.61526457  0.76507934    -0.31000
O1034       O  0.46089021  0.62407383  0.72127793    -0.22900
C1035       C  0.46841996  0.66993546  0.71440949    -0.02900
C1036       C  0.47930472  0.71723956  0.72087087    -0.17300
H1037       H  0.49504314  0.76896452  0.74339555     0.20700
H1038       H  0.45403306  0.56304000  0.74252531     0.19100
H1039       H  0.46082882  0.57403331  0.76845342     0.19000
H1040       H  0.48748722  0.75882970  0.71749647     0.14900
C1041       C  0.21677175  0.04360961  0.62867992     0.30300
C1042       C  0.21781617  0.09805210  0.62214970    -0.36000
C1043       C  0.22016429  0.09225068  0.60968381     0.16300
C1044       C  0.22158076  0.03649276  0.60410417     0.22100
C1045       C  0.22008231  0.98195554  0.61062186    -0.34100
C1046       C  0.21753053  0.98775927  0.62310135     0.16200
O1047       O  0.21641254  0.03897381  0.64043104    -0.26200
C1048       C  0.21664141  0.97950942  0.64250574     0.06000
C1049       C  0.21709178  0.94502235  0.63204209    -0.31000
O1050       O  0.22487707  0.04147381  0.59245201    -0.22900
C1051       C  0.22532764  0.10107838  0.59047973    -0.02900
C1052       C  0.22233987  0.13517644  0.60087466    -0.17300
H1053       H  0.21744434  0.14186900  0.62653043     0.20700
H1054       H  0.22137859  0.93814377  0.60628251     0.19100
H1055       H  0.21848360  0.89623964  0.63118009     0.19000
H1056       H  0.22226329  0.18403693  0.60182082     0.14900
C1057       C  0.07692302  0.07712560  0.68529037     0.30300
C1058       C  0.10229131  0.09560004  0.68596292    -0.36000
C1059       C  0.12038296  0.04971742  0.68468955     0.16300
C1060       C  0.11383934  0.98981860  0.68286427     0.22100
C1061       C  0.08843371  0.97120427  0.68232369    -0.34100
C1062       C  0.07031628  0.01713373  0.68363154     0.16200
O1063       O  0.05714924  0.11315282  0.68550781    -0.26200
C1064       C  0.03752414  0.07602557  0.68408229     0.06000
C1065       C  0.04448763  0.01546546  0.68293246    -0.31000
O1066       O  0.13373095  0.95491725  0.68133085    -0.22900
C1067       C  0.15329993  0.99272947  0.68222814    -0.02900
C1068       C  0.14618010  0.05243218  0.68436480    -0.17300
H1069       H  0.10752964  0.14272118  0.68709510     0.20700
H1070       H  0.08319304  0.92443355  0.68071641     0.19100
H1071       H  0.03245388  0.97664815  0.68123756     0.19000
H1072       H  0.15815513  0.09203870  0.68520087     0.14900
C1073       C  0.33057306  0.83674530  0.67260771     0.30300
C1074       C  0.35690409  0.84364843  0.67315530    -0.36000
C1075       C  0.37106330  0.78980702  0.67351918     0.16300
C1076       C  0.36025022  0.73280272  0.67339531     0.22100
C1077       C  0.33389551  0.72587281  0.67266962    -0.34100
C1078       C  0.31971693  0.77979547  0.67226430     0.16200
O1079       O  0.31363166  0.88087647  0.67285685    -0.26200
C1080       C  0.29161532  0.85171820  0.67256785     0.06000
C1081       C  0.29431231  0.78886378  0.67212725    -0.31000
O1082       O  0.37721092  0.68879906  0.67431159    -0.22900
C1083       C  0.39915140  0.71829274  0.67495820    -0.02900
C1084       C  0.39637781  0.78106096  0.67445936    -0.17300
H1085       H  0.36573647  0.88789129  0.67353290     0.20700
H1086       H  0.32502745  0.68163632  0.67266388     0.19100
H1087       H  0.27960772  0.75470757  0.67219141     0.19000
H1088       H  0.41097239  0.81541591  0.67495997     0.14900
C1089       C  0.23418305  0.81192449  0.85499746     0.30300
C1090       C  0.23612493  0.76040502  0.86237550    -0.36000
C1091       C  0.23317130  0.77025427  0.87472202     0.16300
C1092       C  0.22843439  0.82700656  0.87941756     0.22100
C1093       C  0.22689725  0.87874278  0.87205131    -0.34100
C1094       C  0.23010023  0.86897503  0.85969863     0.16200
O1095       O  0.23460417  0.81210380  0.84319479    -0.26200
C1096       C  0.23115239  0.87001673  0.84021671     0.06000
C1097       C  0.22843965  0.90787759  0.85012629    -0.31000
O1098       O  0.22518651  0.82557359  0.89112261    -0.22900
C1099       C  0.22807897  0.76732739  0.89402537    -0.02900
C1100       C  0.23321131  0.73061953  0.88417972    -0.17300
H1101       H  0.23914029  0.71554205  0.85870095     0.20700
H1102       H  0.22297262  0.92327963  0.87568469     0.19100
H1103       H  0.22429591  0.95594881  0.85023331     0.19000
H1104       H  0.23601088  0.68199850  0.88398987     0.14900
C1105       C  0.37638629  0.80849924  0.80026127     0.30300
C1106       C  0.35987445  0.85793331  0.79924707    -0.36000
C1107       C  0.33399391  0.84396077  0.79929220     0.16300
C1108       C  0.32479244  0.78550765  0.80017743     0.22100
C1109       C  0.34131576  0.73599420  0.80107442    -0.34100
C1110       C  0.36720519  0.75002528  0.80113493     0.16200
O1111       O  0.40132089  0.81115074  0.80102918    -0.26200
C1112       C  0.40809676  0.75351442  0.80244932     0.06000
C1113       C  0.38766657  0.71368268  0.80255169    -0.31000
O1114       O  0.29984293  0.78354352  0.80083638    -0.22900
C1115       C  0.29310853  0.84162602  0.80040088    -0.02900
C1116       C  0.31355908  0.88097551  0.79937006    -0.17300
H1117       H  0.36668083  0.90414357  0.79883008     0.20700
H1118       H  0.33449719  0.69001455  0.80204897     0.19100
H1119       H  0.38787845  0.66496622  0.80375247     0.19000
H1120       H  0.31340593  0.93006576  0.79922502     0.14900
C1121       C  0.07654587  0.05905940  0.81162032     0.30300
C1122       C  0.08824973  0.00192644  0.81123578    -0.36000
C1123       C  0.11469222  0.00207357  0.81061636     0.16300
C1124       C  0.12862017  0.05498198  0.81047839     0.22100
C1125       C  0.11689339  0.11224770  0.81085772    -0.34100
C1126       C  0.09038033  0.11210550  0.81138309     0.16200
O1127       O  0.05204882  0.06902920  0.81176200    -0.26200
C1128       C  0.04995165  0.12920126  0.81155757     0.06000
C1129       C  0.07322385  0.15866182  0.81132695    -0.31000
O1130       O  0.15307237  0.04459339  0.80966002    -0.22900
C1131       C  0.15488248  0.98431177  0.80923565    -0.02900
C1132       C  0.13157254  0.95535496  0.80978688    -0.17300
H1133       H  0.07742651  0.96024263  0.81121992     0.20700
H1134       H  0.12768143  0.15394856  0.81056631     0.19100
H1135       H  0.07691142  0.20690442  0.81088506     0.19000
H1136       H  0.12765009  0.90718264  0.80948476     0.14900
C1137       C  0.21485712  0.89197255  0.75179115     0.30300
C1138       C  0.20743616  0.85870378  0.74158538    -0.36000
C1139       C  0.21824671  0.87671319  0.73068148     0.16300
C1140       C  0.23520876  0.92411049  0.72997656     0.22100
C1141       C  0.24273081  0.95707584  0.74017365    -0.34100
C1142       C  0.23176202  0.93944583  0.75103445     0.16200
O1143       O  0.20761762  0.88187105  0.76289546    -0.26200
C1144       C  0.21983297  0.92367949  0.76933680     0.06000
C1145       C  0.23507694  0.96111633  0.76242580    -0.31000
O1146       O  0.24145825  0.93661554  0.71885898    -0.22900
C1147       C  0.22845830  0.89684375  0.71228109    -0.02900
C1148       C  0.21381043  0.85775666  0.71914892    -0.17300
H1149       H  0.19396074  0.82187945  0.74210161     0.20700
H1150       H  0.25582013  0.99468627  0.73962244     0.19100
H1151       H  0.24773204  0.99667885  0.76542572     0.19000
H1152       H  0.20045054  0.82389112  0.71607017     0.14900
C1153       C  0.24439846  0.32948022  0.35562909     0.30300
C1154       C  0.24335945  0.27527607  0.36221450    -0.36000
C1155       C  0.24379420  0.28138950  0.37471778     0.16300
C1156       C  0.24490135  0.33727824  0.38027570     0.22100
C1157       C  0.24637385  0.39152694  0.37367795    -0.34100
C1158       C  0.24614379  0.38536446  0.36115280     0.16200
O1159       O  0.24311057  0.33393118  0.34390367    -0.26200
C1160       C  0.24428231  0.39324379  0.34178328     0.06000
C1161       C  0.24633210  0.42789998  0.35218163    -0.31000
O1162       O  0.24325951  0.33288176  0.39200516    -0.22900
C1163       C  0.24138064  0.27352489  0.39403669    -0.02900
C1164       C  0.24183641  0.23890938  0.38361538    -0.17300
H1165       H  0.24175463  0.23150927  0.35787302     0.20700
H1166       H  0.24703764  0.43543426  0.37801614     0.19100
H1167       H  0.24704182  0.47678436  0.35301468     0.19000
H1168       H  0.23976218  0.19028232  0.38270400     0.14900
C1169       C  0.22566096  0.57490925  0.12969291     0.30300
C1170       C  0.22217263  0.62654521  0.12251166    -0.36000
C1171       C  0.22462610  0.61776693  0.11013166     0.16300
C1172       C  0.23025050  0.56190584  0.10523261     0.22100
C1173       C  0.23328474  0.50998277  0.11240347    -0.34100
C1174       C  0.23065658  0.51868734  0.12479161     0.16200
O1175       O  0.22601715  0.57401402  0.14147166    -0.26200
C1176       C  0.23091485  0.51647463  0.14420530     0.06000
C1177       C  0.23379258  0.47949390  0.13420096    -0.31000
O1178       O  0.23304312  0.56452792  0.09353567    -0.22900
C1179       C  0.22899837  0.62259578  0.09086517    -0.02900
C1180       C  0.22350996  0.65805975  0.10082418    -0.17300
H1181       H  0.21850528  0.67077295  0.12634766     0.20700
H1182       H  0.23798255  0.46624550  0.10860329     0.19100
H1183       H  0.23889270  0.43197356  0.13391698     0.19000
H1184       H  0.21993729  0.70636194  0.10118386     0.14900
C1185       C  0.23244079  0.44563495  0.25411918     0.30300
C1186       C  0.22537256  0.41326480  0.24379730    -0.36000
C1187       C  0.23456406  0.43580815  0.23293925     0.16300
C1188       C  0.24946917  0.48707526  0.23231972     0.22100
C1189       C  0.25651777  0.51957894  0.24266752    -0.34100
C1190       C  0.24742890  0.49678543  0.25356517     0.16200
O1191       O  0.22695827  0.43048991  0.26517886    -0.26200
C1192       C  0.23846779  0.47228309  0.27187049     0.06000
C1193       C  0.25146885  0.51519176  0.26515812    -0.31000
O1194       O  0.25521801  0.50129170  0.22120736    -0.22900
C1195       C  0.24402119  0.45843447  0.21464062    -0.02900
C1196       C  0.23094853  0.41616181  0.22144528    -0.17300
H1197       H  0.21372102  0.37298042  0.24423159     0.20700
H1198       H  0.26830532  0.55962821  0.24224017     0.19100
H1199       H  0.26310539  0.55230255  0.26834312     0.19000
H1200       H  0.21957054  0.37838412  0.21835419     0.14900
C1201       C  0.48535397  0.30587313  0.37905918     0.30300
C1202       C  0.48589115  0.25421812  0.37167854    -0.36000
C1203       C  0.48513158  0.26513035  0.35929600     0.16300
C1204       C  0.48405072  0.32305252  0.35461609     0.22100
C1205       C  0.48282549  0.37451692  0.36199152    -0.34100
C1206       C  0.48351306  0.36361888  0.37435330     0.16200
O1207       O  0.48769381  0.30632080  0.39079954    -0.26200
C1208       C  0.48711859  0.36490927  0.39367772     0.06000
C1209       C  0.48429871  0.40292748  0.38382888    -0.31000
O1210       O  0.48588416  0.32348281  0.34288299    -0.22900
C1211       C  0.48785151  0.26525267  0.33993602    -0.02900
C1212       C  0.48721389  0.22641013  0.34975304    -0.17300
H1213       H  0.48769572  0.20893223  0.37533520     0.20700
H1214       H  0.48233779  0.41997202  0.35832764     0.19100
H1215       H  0.48390314  0.45200400  0.38364742     0.19000
H1216       H  0.48943105  0.17760853  0.34988085     0.14900
C1217       C  0.39505530  0.35224188  0.30177170     0.30300
C1218       C  0.37834097  0.39939424  0.30456719    -0.36000
C1219       C  0.35252527  0.38583670  0.30343450     0.09900
C1220       C  0.34353657  0.33009601  0.29969666     0.22100
C1221       C  0.36027904  0.28304424  0.29678564    -0.34100
C1222       C  0.38613928  0.29637836  0.29805026     0.16200
O1223       O  0.41989533  0.35331622  0.30312772    -0.26200
C1224       C  0.42691658  0.29721741  0.30030371     0.06000
C1225       C  0.40673927  0.26006340  0.29702238    -0.31000
O1226       O  0.31852915  0.32720050  0.29965993    -0.22900
C1227       C  0.31156293  0.38194336  0.30344311    -0.02900
C1228       C  0.33193701  0.42002791  0.30590704    -0.17300
H1229       H  0.38495300  0.44295227  0.30777064     0.20700
H1230       H  0.35363672  0.23865693  0.29408833     0.19100
H1231       H  0.40713070  0.21230068  0.29477948     0.19000
H1232       H  0.33158611  0.46629382  0.30915926     0.14900
C1233       C  0.48917301  0.08101850  0.12925104     0.30300
C1234       C  0.49004341  0.02682381  0.12263838    -0.36000
C1235       C  0.48705334  0.03268924  0.11019645     0.16300
C1236       C  0.48324345  0.08819653  0.10475763     0.22100
C1237       C  0.48274844  0.14244121  0.11134791    -0.34100
C1238       C  0.48600157  0.13664496  0.12376554     0.16200
O1239       O  0.49016518  0.08552580  0.14098990    -0.26200
C1240       C  0.48795862  0.14471161  0.14307343     0.06000
C1241       C  0.48549783  0.17913500  0.13269795    -0.31000
O1242       O  0.47989874  0.08328380  0.09312330    -0.22900
C1243       C  0.48179548  0.02407133  0.09099833    -0.02900
C1244       C  0.48638714  0.99000926  0.10127776    -0.17300
H1245       H  0.49242183  0.98313861  0.12692690     0.20700
H1246       H  0.47964227  0.18596193  0.10709598     0.19100
H1247       H  0.48250442  0.22753624  0.13190115     0.19000
H1248       H  0.48843500  0.94133327  0.10207902     0.14900
C1249       C  0.33603806  0.33793766  0.17484950     0.30300
C1250       C  0.34826097  0.28148056  0.17537176    -0.36000
C1251       C  0.37464926  0.28276982  0.17447714     0.16300
C1252       C  0.38798602  0.33608446  0.17307773     0.22100
C1253       C  0.37575231  0.39259398  0.17254552    -0.34100
C1254       C  0.34935415  0.39134771  0.17354547     0.16200
O1255       O  0.31158694  0.34707785  0.17581723    -0.26200
C1256       C  0.30908374  0.40706331  0.17519701     0.06000
C1257       C  0.33197046  0.43723120  0.17379017    -0.31000
O1258       O  0.41255053  0.32706548  0.17281512    -0.22900
C1259       C  0.41505458  0.26730961  0.17408850    -0.02900
C1260       C  0.39209036  0.23720064  0.17514790    -0.17300
H1261       H  0.33791813  0.23957476  0.17659250     0.20700
H1262       H  0.38614769  0.43463319  0.17163531     0.19100
H1263       H  0.33529561  0.48557193  0.17315117     0.19000
H1264       H  0.38879532  0.18923758  0.17651214     0.14900
C1265       C  0.49989818  0.24541596  0.25178882     0.30300
C1266       C  0.50504023  0.27889070  0.24134367    -0.36000
C1267       C  0.49454252  0.25604914  0.23066907     0.16300
C1268       C  0.47991112  0.20420200  0.23043546     0.22100
C1269       C  0.47465876  0.17111747  0.24084503    -0.34100
C1270       C  0.48535515  0.19346541  0.25144073     0.16200
O1271       O  0.50752254  0.25861836  0.26274501    -0.26200
C1272       C  0.49793766  0.21423179  0.26942973     0.06000
C1273       C  0.48399019  0.17227794  0.26288660    -0.31000
O1274       O  0.47336997  0.18836524  0.21952063    -0.22900
C1275       C  0.48384415  0.23031125  0.21258296    -0.02900
C1276       C  0.49716788  0.27418423  0.21899219    -0.17300
H1277       H  0.51668379  0.31924350  0.24151325     0.20700
H1278       H  0.46346675  0.13003141  0.24063877     0.19100
H1279       H  0.47353754  0.13349184  0.26615252     0.19000
H1280       H  0.50838015  0.31128010  0.21553977     0.14900
C1281       C  0.98961083  0.81819986  0.37994099     0.30300
C1282       C  0.98940483  0.76626157  0.37263139    -0.36000
C1283       C  0.99074034  0.77676943  0.36024837     0.16300
C1284       C  0.99238853  0.83446935  0.35550694     0.22100
C1285       C  0.99220464  0.88628988  0.36279184    -0.34100
C1286       C  0.99062336  0.87584675  0.37513620     0.16200
O1287       O  0.98949288  0.81890684  0.39173194    -0.26200
C1288       C  0.99013198  0.87764056  0.39449817     0.06000
C1289       C  0.99067273  0.91542297  0.38454887    -0.31000
O1290       O  0.99434307  0.83412347  0.34378074    -0.22900
C1291       C  0.99370266  0.77564168  0.34089542    -0.02900
C1292       C  0.99136453  0.73746855  0.35075614    -0.17300
H1293       H  0.98859789  0.72096022  0.37634981     0.20700
H1294       H  0.99350572  0.93154779  0.35908526     0.19100
H1295       H  0.99178026  0.96443125  0.38430840     0.19000
H1296       H  0.99067838  0.68840832  0.35091183     0.14900
C1297       C  0.09318535  0.59167805  0.30961135     0.30300
C1298       C  0.10492070  0.53458632  0.30947361    -0.36000
C1299       C  0.13136522  0.53477187  0.31006137     0.16300
C1300       C  0.14522196  0.58768145  0.31082450     0.22100
C1301       C  0.13346924  0.64488813  0.31097077    -0.34100
C1302       C  0.10698451  0.64471266  0.31027916     0.16200
O1303       O  0.06874212  0.60166522  0.30889266    -0.26200
C1304       C  0.06668333  0.66181918  0.30904146     0.06000
C1305       C  0.08988986  0.69129111  0.30988034    -0.31000
O1306       O  0.16972290  0.57743275  0.31096404    -0.22900
C1307       C  0.17164950  0.51727581  0.31024760    -0.02900
C1308       C  0.14836941  0.48817822  0.30967132    -0.17300
H1309       H  0.09415696  0.49294742  0.30878220     0.20700
H1310       H  0.14425450  0.68657775  0.31140620     0.19100
H1311       H  0.09358774  0.73957495  0.31010198     0.19000
H1312       H  0.14457363  0.44010403  0.30883711     0.14900
C1313       C  0.98233162  0.56164438  0.13031349     0.30300
C1314       C  0.98166958  0.50816385  0.12347164    -0.36000
C1315       C  0.98344231  0.51567994  0.11102437     0.16300
C1316       C  0.98525540  0.57216736  0.10575677     0.22100
C1317       C  0.98617500  0.62555554  0.11260109    -0.34100
C1318       C  0.98480807  0.61797755  0.12504723     0.16200
O1319       O  0.98076117  0.56504909  0.14205153    -0.26200
C1320       C  0.98252664  0.62412135  0.14436866     0.06000
C1321       C  0.98515897  0.65952584  0.13414404    -0.31000
O1322       O  0.98529187  0.56917311  0.09399447    -0.22900
C1323       C  0.98388675  0.51011305  0.09165085    -0.02900
C1324       C  0.98284283  0.47425805  0.10188997    -0.17300
H1325       H  0.97975959  0.46390636  0.12757264     0.20700
H1326       H  0.98763908  0.66988838  0.10848917     0.19100
H1327       H  0.98677793  0.70836177  0.13351155     0.19000
H1328       H  0.98076861  0.42551145  0.10248912     0.14900
C1329       C  0.09148978  0.61802624  0.18309008     0.30300
C1330       C  0.11655964  0.63886716  0.18317571    -0.36000
C1331       C  0.13528727  0.59403809  0.18354449     0.16300
C1332       C  0.12963045  0.53293214  0.18372602     0.22100
C1333       C  0.10453310  0.51208147  0.18377188    -0.34100
C1334       C  0.08578032  0.55697476  0.18348555     0.16200
O1335       O  0.07117437  0.65210359  0.18229942    -0.26200
C1336       C  0.05212984  0.61265429  0.18229000     0.06000
C1337       C  0.06000895  0.55261295  0.18306428    -0.31000
O1338       O  0.15001889  0.49885948  0.18341134    -0.22900
C1339       C  0.16898909  0.53852261  0.18312583    -0.02900
C1340       C  0.16101211  0.59854985  0.18324718    -0.17300
H1341       H  0.12112169  0.68667727  0.18276289     0.20700
H1342       H  0.09997748  0.46422120  0.18380537     0.19100
H1343       H  0.04853272  0.51196622  0.18296060     0.19000
H1344       H  0.17240626  0.63923784  0.18272431     0.14900
C1345       C  0.99457723  0.73477837  0.23094928     0.30300
C1346       C  0.00858899  0.75704613  0.24070909    -0.36000
C1347       C  0.00258899  0.73229344  0.25193651     0.16300
C1348       C  0.98409585  0.68880512  0.25351326     0.22100
C1349       C  0.96998500  0.66692574  0.24378828    -0.34100
C1350       C  0.97596242  0.69165772  0.23258810     0.16200
O1351       O  0.99815661  0.74795810  0.21951237    -0.26200
C1352       C  0.98154188  0.71271040  0.21385084     0.06000
C1353       C  0.96711707  0.67737502  0.22154659    -0.31000
O1354       O  0.98106277  0.67364397  0.26486555    -0.22900
C1355       C  0.99782941  0.70802329  0.27060495    -0.02900
C1356       C  0.01179700  0.74512864  0.26302289    -0.17300
H1357       H  0.02329977  0.79066080  0.23962157     0.20700
H1358       H  0.95547410  0.63279556  0.24485840     0.19100
H1359       H  0.95328659  0.64300213  0.21925282     0.19000
H1360       H  0.02582505  0.77884469  0.26542205     0.14900
C1361       C  0.74303077  0.82699787  0.38088736     0.30300
C1362       C  0.74402937  0.88108354  0.37421518    -0.36000
C1363       C  0.74570660  0.87445326  0.36172487     0.16300
C1364       C  0.74612416  0.81826468  0.35626890     0.22100
C1365       C  0.74564621  0.76424299  0.36295093    -0.34100
C1366       C  0.74418285  0.77086731  0.37543705     0.16200
O1367       O  0.74014893  0.82281913  0.39257392    -0.26200
C1368       C  0.73973188  0.76336717  0.39470616     0.06000
C1369       C  0.74238081  0.72854685  0.38438265    -0.31000
O1370       O  0.74575912  0.82221008  0.34450410    -0.22900
C1371       C  0.74541909  0.88156371  0.34231812    -0.02900
C1372       C  0.74558703  0.91664289  0.35269766    -0.17300
H1373       H  0.74292523  0.92517482  0.37845574     0.20700
H1374       H  0.74573827  0.72014569  0.35867727     0.19100
H1375       H  0.74215697  0.67963448  0.38355490     0.19000
H1376       H  0.74441895  0.96550149  0.35346745     0.14900
C1377       C  0.84212616  0.81947663  0.30123836     0.30300
C1378       C  0.85928088  0.77103853  0.30156110    -0.36000
C1379       C  0.88499028  0.78682446  0.30137087     0.16300
C1380       C  0.89345731  0.84599223  0.30075854     0.22100
C1381       C  0.87629374  0.89443471  0.30032706    -0.34100
C1382       C  0.85057053  0.87868127  0.30065880     0.16200
O1383       O  0.81725785  0.81556143  0.30221885    -0.26200
C1384       C  0.80976696  0.87315020  0.30233397     0.06000
C1385       C  0.82967614  0.91414922  0.30132400    -0.31000
O1386       O  0.91841284  0.85014209  0.30124577    -0.22900
C1387       C  0.92590402  0.79274155  0.30223411    -0.02900
C1388       C  0.90591272  0.75165431  0.30233138    -0.17300
H1389       H  0.85306860  0.72446386  0.30232170     0.20700
H1390       H  0.88253024  0.94114672  0.30015043     0.19100
H1391       H  0.82889918  0.96319750  0.30153238     0.19000
H1392       H  0.90670925  0.70282475  0.30326829     0.14900
C1393       C  0.64344641  0.07645108  0.31203151     0.30300
C1394       C  0.63177016  0.13373738  0.31171016    -0.36000
C1395       C  0.60527178  0.13381297  0.31103988     0.16300
C1396       C  0.59128815  0.08098823  0.31083605     0.22100
C1397       C  0.60297376  0.02368018  0.31119453    -0.34100
C1398       C  0.62949789  0.02358522  0.31172964     0.16200
O1399       O  0.66796227  0.06609996  0.31209366    -0.26200
C1400       C  0.66990726  0.00584918  0.31177202     0.06000
C1401       C  0.64653933  0.97682789  0.31154532    -0.31000
O1402       O  0.56682501  0.09141366  0.30988495    -0.22900
C1403       C  0.56500259  0.15167058  0.30942203    -0.02900
C1404       C  0.58836390  0.18056866  0.31010713    -0.17300
H1405       H  0.64264432  0.17534680  0.31171498     0.20700
H1406       H  0.59213457  0.98205804  0.31081841     0.19100
H1407       H  0.64270180  0.92866975  0.31100470     0.19000
H1408       H  0.59230571  0.22872698  0.30979606     0.14900
C1409       C  0.73220235  0.06047459  0.10579573     0.30300
C1410       C  0.73128720  0.00919804  0.11325604    -0.36000
C1411       C  0.73512456  0.02000244  0.12552072     0.16300
C1412       C  0.73979737  0.07732370  0.13000538     0.22100
C1413       C  0.74035833  0.12859457  0.12258053    -0.34100
C1414       C  0.73619825  0.11792807  0.11036078     0.16200
O1415       O  0.73040790  0.06043532  0.09403415    -0.26200
C1416       C  0.73288896  0.11856688  0.09104798     0.06000
C1417       C  0.73633818  0.15673448  0.10082654    -0.31000
O1418       O  0.74322991  0.07728127  0.14166625    -0.22900
C1419       C  0.74050664  0.01944898  0.14477181    -0.02900
C1420       C  0.73536217  0.98136372  0.13511762    -0.17300
H1421       H  0.72809516  0.96407890  0.10972214     0.20700
H1422       H  0.74397130  0.17357916  0.12609246     0.19100
H1423       H  0.73978406  0.20513280  0.10084642     0.19000
H1424       H  0.73221029  0.93285499  0.13517551     0.14900
C1425       C  0.58758875  0.08110420  0.18186826     0.30300
C1426       C  0.60408714  0.03161174  0.18286279    -0.36000
C1427       C  0.62994835  0.04517672  0.18209986     0.16300
C1428       C  0.63911818  0.10328099  0.18052780     0.22100
C1429       C  0.62261047  0.15270413  0.17945050    -0.34100
C1430       C  0.59675004  0.13912411  0.18017770     0.16200
O1431       O  0.56262227  0.07902968  0.18215386    -0.26200
C1432       C  0.55581678  0.13657336  0.18060204     0.06000
C1433       C  0.57625138  0.17575805  0.17931467    -0.31000
O1434       O  0.66407125  0.10523779  0.18001188    -0.22900
C1435       C  0.67085396  0.04747813  0.18121002    -0.02900
C1436       C  0.65042192  0.00827891  0.18251063    -0.17300
H1437       H  0.59726902  0.98576775  0.18406534     0.20700
H1438       H  0.62941276  0.19843504  0.17807710     0.19100
H1439       H  0.57598247  0.22425614  0.17780884     0.19000
H1440       H  0.65067197  0.95945644  0.18353203     0.14900
C1441       C  0.83588245  0.83388459  0.17962489     0.30300
C1442       C  0.84695853  0.77607567  0.18023847    -0.36000
C1443       C  0.87319033  0.77392396  0.17865230     0.16300
C1444       C  0.88741444  0.82531830  0.17659517     0.22100
C1445       C  0.87636311  0.88320531  0.17609184    -0.34100
C1446       C  0.85013536  0.88539369  0.17772415     0.16200
O1447       O  0.81164158  0.84590315  0.18052052    -0.26200
C1448       C  0.81024568  0.90586086  0.17928192     0.06000
C1449       C  0.83364565  0.93316961  0.17758515    -0.31000
O1450       O  0.91160044  0.81310397  0.17544870    -0.22900
C1451       C  0.91299813  0.75318937  0.17678780    -0.02900
C1452       C  0.88966276  0.72616757  0.17882588    -0.17300
H1453       H  0.83585118  0.73560135  0.18178519     0.20700
H1454       H  0.88746351  0.92366474  0.17452176     0.19100
H1455       H  0.83777529  0.98068955  0.17613269     0.19000
H1456       H  0.88554570  0.67876092  0.18042511     0.14900
C1457       C  0.74377811  0.99060548  0.23328643     0.30300
C1458       C  0.74919998  0.02301496  0.24383720    -0.36000
C1459       C  0.74214914  0.99483237  0.25456407     0.16300
C1460       C  0.73057120  0.93872954  0.25478569     0.22100
C1461       C  0.72517335  0.90634836  0.24425057    -0.34100
C1462       C  0.73226008  0.93443583  0.23354530     0.16200
O1463       O  0.74851843  0.00867477  0.22230428    -0.26200
C1464       C  0.73999907  0.96356393  0.21545520     0.06000
C1465       C  0.72969692  0.91589975  0.22192535    -0.31000
O1466       O  0.72633526  0.91980232  0.26574045    -0.22900
C1467       C  0.73525268  0.96412130  0.27266858    -0.02900
C1468       C  0.74532269  0.01232893  0.26624458    -0.17300
H1469       H  0.75836681  0.06688871  0.24368024     0.20700
H1470       H  0.71626161  0.86217001  0.24441282     0.19100
H1471       H  0.72123185  0.87449132  0.21856591     0.19000
H1472       H  0.75438201  0.05289116  0.26965769     0.14900
loop_ 
_geom_bond_atom_site_label_1 
_geom_bond_atom_site_label_2 
_geom_bond_distance 
_geom_bond_site_symmetry_2 
_ccdc_geom_bond_type 
O1            V9   1.921   1_565  S
O1           C11   1.270       .  A
O2            V9   1.921       .  S
O2           C12   1.269       .  A
O3            V9   1.873       .  S
O3           C13   1.256   1_545  A
O4            V9   1.870       .  S
O4           C14   1.256       .  A
O5           V10   1.919       .  S
O5           C14   1.269   1_565  A
O6           V10   1.913       .  S
O6           C13   1.268       .  A
O7           V10   1.877       .  S
O7           C12   1.258   1_565  A
O8           V10   1.878       .  S
O8           C11   1.257       .  A
V9           V10   2.089   1_545  T
C11        C1448   1.467       .  S
C12        C1435   1.468       .  S
C13        C1464   1.458       .  S
C14        C1419   1.460       .  S
O15          V23   1.926       .  S
O15          C25   1.271       .  A
O16          V23   1.923       .  S
O16          C26   1.270       .  A
O17          V23   1.872       .  S
O17          C27   1.256       .  A
O18          V23   1.869       .  S
O18          C28   1.256       .  A
O19          V24   1.920       .  S
O19          C28   1.269       .  A
O20          V24   1.926       .  S
O20          C27   1.271       .  A
O21          V24   1.880       .  S
O21          C26   1.259       .  A
O22          V24   1.883   1_545  S
O22          C25   1.258   1_545  A
V23          V24   2.088       .  T
C25        C1400   1.475   1_565  S
C26        C1384   1.472       .  S
C27        C1371   1.467       .  S
C28        C1467   1.460       .  S
O29          V37   1.919       .  S
O29          C39   1.269       .  A
O30          V37   1.920   1_455  S
O30          C40   1.270       .  A
O31          V37   1.869       .  S
O31          C41   1.257       .  A
O32          V37   1.873       .  S
O32          C42   1.256       .  A
O33          V38   1.919       .  S
O33          C42   1.270       .  A
O34          V38   1.918       .  S
O34          C41   1.268       .  A
O35          V38   1.879   1_455  S
O35          C40   1.258       .  A
O36          V38   1.880       .  S
O36          C39   1.258       .  A
V37          V38   2.088       .  T
C39        C1451   1.467       .  S
C40        C1336   1.467       .  S
C41        C1352   1.461       .  S
C42        C1320   1.462       .  S
O43          V51   1.922       .  S
O43          C53   1.270       .  A
O44          V51   1.924   1_655  S
O44          C54   1.270       .  A
O45          V51   1.873       .  S
O45          C55   1.257   1_455  A
O46          V51   1.874       .  S
O46          C56   1.257   1_455  A
O47          V52   1.913       .  S
O47          C56   1.268       .  A
O48          V52   1.918       .  S
O48          C55   1.269       .  A
O49          V52   1.877       .  S
O49          C54   1.258       .  A
O50          V52   1.879   1_455  S
O50          C53   1.258       .  A
V51          V52   2.086   1_455  T
C53        C1304   1.469       .  S
C54        C1387   1.471       .  S
C55        C1291   1.461       .  S
C56        C1355   1.460       .  S
O57          V65   1.918       .  S
O57          C67   1.269       .  A
O58          V65   1.918       .  S
O58          C68   1.269       .  A
O59          V65   1.869       .  S
O59          C69   1.256       .  A
O60          V65   1.870       .  S
O60          C70   1.255       .  A
O61          V66   1.921       .  S
O61          C70   1.270       .  A
O62          V66   1.921       .  S
O62          C69   1.269       .  A
O63          V66   1.879       .  S
O63          C68   1.259       .  A
O64          V66   1.881       .  S
O64          C67   1.258       .  A
V65          V66   2.088       .  T
C67        C1259   1.467       .  S
C68        C1432   1.468       .  S
C69        C1275   1.461       .  S
C70        C1240   1.460       .  S
O71          V79   1.922       .  S
O71          C81   1.270       .  A
O72          V79   1.919       .  S
O72          C82   1.269       .  A
O73          V79   1.873       .  S
O73          C83   1.257       .  A
O74          V79   1.879       .  S
O74          C84   1.257       .  A
O75          V80   1.909       .  S
O75          C84   1.268       .  A
O76          V80   1.918       .  S
O76          C83   1.268       .  A
O77          V80   1.883       .  S
O77          C82   1.259       .  A
O78          V80   1.889       .  S
O78          C81   1.260       .  A
V79          V80   2.089       .  T
C81        C1403   1.476       .  S
C82        C1224   1.469       .  S
C83        C1211   1.461       .  S
C84        C1272   1.460       .  S
O85          V93   1.920       .  S
O85          C95   1.269       .  A
O86          V93   1.917       .  S
O86          C96   1.269       .  A
O87          V93   1.877       .  S
O87          C97   1.257       .  A
O88          V93   1.874       .  S
O88          C98   1.256       .  A
O89          V94   1.920       .  S
O89          C98   1.269       .  A
O90          V94   1.915       .  S
O90          C97   1.269       .  A
O91          V94   1.880       .  S
O91          C96   1.258       .  A
O92          V94   1.881       .  S
O92          C95   1.258       .  A
V93          V94   2.088       .  T
C95        C1256   1.468       .  S
C96        C1339   1.465       .  S
C97        C1195   1.462       .  S
C98        C1176   1.462       .  S
O99         V107   1.922       .  S
O99         C109   1.271       .  A
O100        V107   1.925       .  S
O100        C110   1.270       .  A
O101        V107   1.868       .  S
O101        C111   1.255       .  A
O102        V107   1.867       .  S
O102        C112   1.255       .  A
O103        V108   1.926       .  S
O103        C112   1.271       .  A
O104        V108   1.927       .  S
O104        C111   1.271       .  A
O105        V108   1.876       .  S
O105        C110   1.258       .  A
O106        V108   1.880       .  S
O106        C109   1.257       .  A
V107        V108   2.087       .  T
C109       C1307   1.469       .  S
C110       C1227   1.471       .  S
C111       C1160   1.465       .  S
C112       C1192   1.463       .  S
O113        V121   1.922       .  S
O113        C123   1.271       .  A
O114        V121   1.921       .  S
O114        C124   1.269       .  A
O115        V121   1.878       .  S
O115        C125   1.257       .  A
O116        V121   1.879       .  S
O116        C126   1.257       .  A
O117        V122   1.921       .  S
O117        C126   1.270       .  A
O118        V122   1.928       .  S
O118        C125   1.271       .  A
O119        V122   1.877       .  S
O119        C124   1.258       .  A
O120        V122   1.884       .  S
O120        C123   1.258       .  A
V121        V122   2.087       .  T
C123       C1131   1.472       .  S
C124       C1115   1.469       .  S
C125       C1096   1.470       .  S
C126       C1144   1.468       .  S
O127        V135   1.922       .  S
O127        C137   1.270       .  A
O128        V135   1.922   1_545  S
O128        C138   1.270   1_545  A
O129        V135   1.872       .  S
O129        C139   1.256       .  A
O130        V135   1.872       .  S
O130        C140   1.256       .  A
O131        V136   1.930       .  S
O131        C140   1.272       .  A
O132        V136   1.927       .  S
O132        C139   1.271       .  A
O133        V136   1.881       .  S
O133        C138   1.258       .  A
O134        V136   1.883       .  S
O134        C137   1.259       .  A
V135        V136   2.087       .  T
C137       C1080   1.474       .  S
C138       C1067   1.469       .  S
C139       C1147   1.467       .  S
C140       C1048   1.469       .  S
O141        V149   1.922       .  S
O141        C151   1.271       .  A
O142        V149   1.921       .  S
O142        C152   1.270       .  A
O143        V149   1.873       .  S
O143        C153   1.256       .  A
O144        V149   1.871       .  S
O144        C154   1.256       .  A
O145        V150   1.924       .  S
O145        C154   1.271       .  A
O146        V150   1.928       .  S
O146        C153   1.272       .  A
O147        V150   1.877       .  S
O147        C152   1.258       .  A
O148        V150   1.882       .  S
O148        C151   1.258       .  A
V149        V150   2.088       .  T
C151       C1019   1.471       .  S
C152       C1112   1.469       .  S
C153       C1003   1.469       .  S
C154       C1032   1.464       .  S
O155        V163   1.925       .  S
O155        C165   1.270       .  A
O156        V163   1.923       .  S
O156        C166   1.270       .  A
O157        V163   1.872       .  S
O157        C167   1.256       .  A
O158        V163   1.873       .  S
O158        C168   1.256       .  A
O159        V164   1.920       .  S
O159        C168   1.270       .  A
O160        V164   1.919       .  S
O160        C167   1.269       .  A
O161        V164   1.879       .  S
O161        C166   1.258       .  A
O162        V164   1.882       .  S
O162        C165   1.259       .  A
V163        V164   2.087       .  T
C165       C1083   1.475       .  S
C166        C984   1.469       .  S
C167       C1035   1.463       .  S
C168        C968   1.462       .  S
O169        V177   1.925       .  S
O169        C179   1.270       .  A
O170        V177   1.920       .  S
O170        C180   1.270       .  A
O171        V177   1.875       .  S
O171        C181   1.256       .  A
O172        V177   1.875       .  S
O172        C182   1.256       .  A
O173        V178   1.921       .  S
O173        C182   1.270       .  A
O174        V178   1.915       .  S
O174        C181   1.269       .  A
O175        V178   1.882       .  S
O175        C180   1.258       .  A
O176        V178   1.880       .  S
O176        C179   1.259       .  A
V177        V178   2.088       .  T
C179        C939   1.475       .  S
C180        C987   1.468       .  S
C181        C952   1.460       .  S
C182        C920   1.463       .  S
O183        V191   1.922       .  S
O183        C193   1.270       .  A
O184        V191   1.921       .  S
O184        C194   1.269       .  A
O185        V191   1.872       .  S
O185        C195   1.256       .  A
O186        V191   1.872       .  S
O186        C196   1.257       .  A
O187        V192   1.917       .  S
O187        C196   1.268       .  A
O188        V192   1.920       .  S
O188        C195   1.270       .  A
O189        V192   1.878       .  S
O189        C194   1.259       .  A
O190        V192   1.881       .  S
O190        C193   1.258       .  A
V191        V192   2.088       .  T
C193       C1016   1.470       .  S
C194        C904   1.469       .  S
C195        C888   1.462       .  S
C196        C955   1.460       .  S
O197        V205   1.920       .  S
O197        C207   1.270       .  A
O198        V205   1.921       .  S
O198        C208   1.270   1_655  A
O199        V205   1.875       .  S
O199        C209   1.257       .  A
O200        V205   1.871       .  S
O200        C210   1.256       .  A
O201        V206   1.922       .  S
O201        C210   1.270       .  A
O202        V206   1.918       .  S
O202        C209   1.269       .  A
O203        V206   1.879   1_455  S
O203        C208   1.258       .  A
O204        V206   1.886       .  S
O204        C207   1.259       .  A
V205        V206   2.088       .  T
C207        C936   1.473       .  S
C208       C1064   1.467       .  S
C209        C872   1.465       .  S
C210        C856   1.463       .  S
O211        V219   1.925   1_455  S
O211        C221   1.271       .  A
O212        V219   1.923       .  S
O212        C222   1.270       .  A
O213        V219   1.868       .  S
O213        C223   1.255       .  A
O214        V219   1.869       .  S
O214        C224   1.257       .  A
O215        V220   1.921       .  S
O215        C224   1.269       .  A
O216        V220   1.922       .  S
O216        C223   1.270       .  A
O217        V220   1.877       .  S
O217        C222   1.258       .  A
O218        V220   1.880   1_455  S
O218        C221   1.258       .  A
V219        V220   2.088       .  T
C221       C1128   1.472       .  S
C222        C907   1.470       .  S
C223        C843   1.460       .  S
C224        C875   1.465       .  S
O225        V233   1.923       .  S
O225        C235   1.271       .  A
O226        V233   1.925       .  S
O226        C236   1.271       .  A
O227        V233   1.875       .  S
O227        C237   1.256       .  A
O228        V233   1.872       .  S
O228        C238   1.256       .  A
O229        V234   1.926       .  S
O229        C238   1.271       .  A
O230        V234   1.923       .  S
O230        C237   1.271       .  A
O231        V234   1.870       .  S
O231        C236   1.256       .  A
O232        V234   1.876       .  S
O232        C235   1.257       .  A
V233        V234   2.088       .  T
C235        C808   1.468       .  S
C236        C795   1.468       .  S
C237        C827   1.466       .  S
C238        C923   1.467       .  S
O239        V247   1.930       .  S
O239        C249   1.272       .  A
O240        V247   1.926       .  S
O240        C250   1.271       .  A
O241        V247   1.876       .  S
O241        C251   1.257       .  A
O242        V247   1.874       .  S
O242        C252   1.256       .  A
O243        V248   1.923       .  S
O243        C252   1.270       .  A
O244        V248   1.926       .  S
O244        C251   1.271       .  A
O245        V248   1.874       .  S
O245        C250   1.257       .  A
O246        V248   1.879       .  S
O246        C249   1.258       .  A
V247        V248   2.087       .  T
C249        C776   1.478       .  S
C250        C760   1.470       .  S
C251       C1368   1.469       .  S
C252        C824   1.466       .  S
O253        V261   1.926   1_455  S
O253        C263   1.271       .  A
O254        V261   1.924       .  S
O254        C264   1.270       .  A
O255        V261   1.873       .  S
O255        C265   1.256       .  A
O256        V261   1.871       .  S
O256        C266   1.256       .  A
O257        V262   1.917       .  S
O257        C266   1.268       .  A
O258        V262   1.917       .  S
O258        C265   1.269       .  A
O259        V262   1.877       .  S
O259        C264   1.258       .  A
O260        V262   1.880   1_445  S
O260        C263   1.258   1_545  A
V261        V262   2.087       .  T
C263        C728   1.473       .  S
C264        C763   1.471       .  S
C265       C1288   1.460       .  S
C266        C744   1.459       .  S
O267        V275   1.923   1_565  S
O267        C277   1.270       .  A
O268        V275   1.919       .  S
O268        C278   1.270   1_655  A
O269        V275   1.873   1_565  S
O269        C279   1.256       .  A
O270        V275   1.872       .  S
O270        C280   1.256   1_545  A
O271        V276   1.922       .  S
O271        C280   1.270       .  A
O272        V276   1.914       .  S
O272        C279   1.269       .  A
O273        V276   1.876   1_455  S
O273        C278   1.257   1_565  A
O274        V276   1.877       .  S
O274        C277   1.257       .  A
V275        V276   2.088   1_545  T
C277        C811   1.467       .  S
C278        C712   1.464       .  S
C279        C747   1.459       .  S
C280        C859   1.463   1_565  S
O281        V289   1.925       .  S
O281        C291   1.271       .  A
O282        V289   1.922       .  S
O282        C292   1.271       .  A
O283        V289   1.873       .  S
O283        C293   1.256       .  A
O284        V289   1.873       .  S
O284        C294   1.256       .  A
O285        V290   1.920       .  S
O285        C294   1.270       .  A
O286        V290   1.926       .  S
O286        C293   1.271       .  A
O287        V290   1.877       .  S
O287        C292   1.257       .  A
O288        V290   1.881       .  S
O288        C291   1.258       .  A
V289        V290   2.088       .  T
C291        C731   1.473       .  S
C292        C680   1.466       .  S
C293       C1163   1.466       .  S
C294        C696   1.463       .  S
O295        V303   1.923       .  S
O295        C305   1.271       .  A
O296        V303   1.922       .  S
O296        C306   1.270       .  A
O297        V303   1.873       .  S
O297        C307   1.257       .  A
O298        V303   1.876       .  S
O298        C308   1.257       .  A
O299        V304   1.926       .  S
O299        C308   1.271       .  A
O300        V304   1.925       .  S
O300        C307   1.270       .  A
O301        V304   1.878       .  S
O301        C306   1.258       .  A
O302        V304   1.887       .  S
O302        C305   1.259       .  A
V303        V304   2.087       .  T
C305        C667   1.476       .  S
C306        C715   1.466       .  S
C307        C699   1.466       .  S
C308       C1051   1.469       .  S
O309        V317   1.926       .  S
O309        C319   1.271       .  A
O310        V317   1.925       .  S
O310        C320   1.271       .  A
O311        V317   1.871       .  S
O311        C321   1.257       .  A
O312        V317   1.867       .  S
O312        C322   1.255       .  A
O313        V318   1.922       .  S
O313        C322   1.270       .  A
O314        V318   1.918       .  S
O314        C321   1.269       .  A
O315        V318   1.876       .  S
O315        C320   1.258       .  A
O316        V318   1.882       .  S
O316        C319   1.258       .  A
V317        V318   2.087       .  T
C319        C664   1.474       .  S
C320        C792   1.470       .  S
C321        C648   1.463       .  S
C322        C971   1.460       .  S
O323        V331   1.930       .  S
O323        C333   1.272       .  A
O324        V331   1.929       .  S
O324        C334   1.271       .  A
O325        V331   1.873       .  S
O325        C335   1.256       .  A
O326        V331   1.870       .  S
O326        C336   1.256       .  A
O327        V332   1.915       .  S
O327        C336   1.268       .  A
O328        V332   1.919       .  S
O328        C335   1.270       .  A
O329        V332   1.872       .  S
O329        C334   1.256       .  A
O330        V332   1.877       .  S
O330        C333   1.258       .  A
V331        V332   2.087       .  T
C333        C779   1.478       .  S
C334        C683   1.468       .  S
C335       C1208   1.462       .  S
C336        C651   1.460       .  S
O337        V345   1.922       .  S
O337        C347   1.270       .  A
O338        V345   1.923       .  S
O338        C348   1.270       .  A
O339        V345   1.880       .  S
O339        C349   1.257       .  A
O340        V345   1.876       .  S
O340        C350   1.258       .  A
O341        V346   1.920       .  S
O341        C350   1.269       .  A
O342        V346   1.926       .  S
O342        C349   1.271       .  A
O343        V346   1.874       .  S
O343        C348   1.257       .  A
O344        V346   1.882       .  S
O344        C347   1.258       .  A
V345        V346   2.087       .  T
C347        C616   1.471       .  S
C348        C600   1.465       .  S
C349       C1099   1.472       .  S
C350        C632   1.467       .  S
O351        V359   1.925       .  S
O351        C361   1.271       .  A
O352        V359   1.925       .  S
O352        C362   1.271       .  A
O353        V359   1.871       .  S
O353        C363   1.257       .  A
O354        V359   1.873       .  S
O354        C364   1.256       .  A
O355        V360   1.922       .  S
O355        C364   1.270       .  A
O356        V360   1.920       .  S
O356        C363   1.269       .  A
O357        V360   1.879       .  S
O357        C362   1.257       .  A
O358        V360   1.883       .  S
O358        C361   1.259       .  A
V359        V360   2.087       .  T
C361        C587   1.477       .  S
C362        C568   1.470       .  S
C363        C635   1.465       .  S
C364       C1179   1.465       .  S
O365        V373   1.922       .  S
O365        C375   1.270       .  A
O366        V373   1.925       .  S
O366        C376   1.270       .  A
O367        V373   1.869       .  S
O367        C377   1.255       .  A
O368        V373   1.869       .  S
O368        C378   1.255       .  A
O369        V374   1.919       .  S
O369        C378   1.269       .  A
O370        V374   1.922       .  S
O370        C377   1.270       .  A
O371        V374   1.876       .  S
O371        C376   1.258       .  A
O372        V374   1.884       .  S
O372        C375   1.259       .  A
V373        V374   2.087       .  T
C375        C539   1.473       .  S
C376        C520   1.471       .  S
C377        C891   1.461       .  S
C378        C552   1.459       .  S
O379        V387   1.933       .  S
O379        C389   1.272       .  A
O380        V387   1.930       .  S
O380        C390   1.272       .  A
O381        V387   1.872       .  S
O381        C391   1.256       .  A
O382        V387   1.873       .  S
O382        C392   1.256       .  A
O383        V388   1.918       .  S
O383        C392   1.269       .  A
O384        V388   1.917       .  S
O384        C391   1.269       .  A
O385        V388   1.876       .  S
O385        C390   1.257       .  A
O386        V388   1.875       .  S
O386        C389   1.258       .  A
V387        V388   2.086       .  T
C389        C504   1.478       .  S
C390        C491   1.472       .  S
C391        C555   1.459       .  S
C392       C1416   1.459       .  S
O393        V401   1.923       .  S
O393        C403   1.270       .  A
O394        V401   1.919       .  S
O394        C404   1.270       .  A
O395        V401   1.880       .  S
O395        C405   1.258       .  A
O396        V401   1.879       .  S
O396        C406   1.258       .  A
O397        V402   1.920       .  S
O397        C406   1.269       .  A
O398        V402   1.922       .  S
O398        C405   1.270       .  A
O399        V402   1.878       .  S
O399        C404   1.257       .  A
O400        V402   1.880       .  S
O400        C403   1.259       .  A
V401        V402   2.086       .  T
C403        C536   1.473       .  S
C404        C603   1.465       .  S
C405       C1000   1.469       .  S
C406        C475   1.465       .  S
O407        V415   1.929   1_565  S
O407        C417   1.272       .  A
O408        V415   1.929       .  S
O408        C418   1.272       .  A
O409        V415   1.874   1_565  S
O409        C419   1.256       .  A
O410        V415   1.870       .  S
O410        C420   1.255       .  A
O411        V416   1.925       .  S
O411        C420   1.271   1_565  A
O412        V416   1.919       .  S
O412        C419   1.270       .  A
O413        V416   1.876       .  S
O413        C418   1.256   1_565  A
O414        V416   1.880       .  S
O414        C417   1.259       .  A
V415        V416   2.087   1_545  T
C417        C584   1.477       .  S
C418        C488   1.471       .  S
C419        C472   1.463       .  S
C420       C1243   1.463       .  S
O421        V429   1.925   1_455  S
O421        C431   1.271       .  A
O422        V429   1.926       .  S
O422        C432   1.271       .  A
O423        V429   1.866       .  S
O423        C433   1.255       .  A
O424        V429   1.869       .  S
O424        C434   1.255       .  A
O425        V430   1.918       .  S
O425        C434   1.269       .  A
O426        V430   1.921       .  S
O426        C433   1.270       .  A
O427        V430   1.876       .  S
O427        C432   1.258       .  A
O428        V430   1.881   1_455  S
O428        C431   1.258       .  A
V429        V430   2.088       .  T
C431        C619   1.472       .  S
C432        C523   1.472       .  S
C433        C840   1.459       .  S
C434        C456   1.459       .  S
O435        V443   1.925       .  S
O435        C445   1.271       .  A
O436        V443   1.924   1_455  S
O436        C446   1.270       .  A
O437        V443   1.870       .  S
O437        C447   1.255       .  A
O438        V443   1.872       .  S
O438        C448   1.256       .  A
O439        V444   1.920       .  S
O439        C448   1.269       .  A
O440        V444   1.916       .  S
O440        C447   1.269       .  A
O441        V444   1.880   1_455  S
O441        C446   1.258       .  A
O442        V444   1.881       .  S
O442        C445   1.258       .  A
V443        V444   2.088       .  T
C445        C507   1.475       .  S
C446        C571   1.470       .  S
C447        C459   1.458       .  S
C448       C1323   1.461       .  S
C449        C454   1.380       .  A
C449        C450   1.402       .  A
C449        O455   1.311       .  A
C450        C451   1.397   1_556  A
C450        H461   1.082   1_655  S
C451        C460   1.364       .  A
C451        C452   1.380       .  A
C452        C453   1.402   1_554  A
C452        O458   1.311       .  A
C453        C454   1.398       .  A
C453        H462   1.082       .  S
C454        C457   1.365       .  A
O455        C456   1.330       .  A
C456        C457   1.389       .  A
C457        H463   1.082       .  S
O458        C459   1.330       .  A
C459        C460   1.388       .  A
C460        H464   1.082       .  S
C465        C470   1.380       .  A
C465        C466   1.405   1_554  A
C465        O471   1.314       .  A
C466        C467   1.402       .  A
C466        H477   1.082   1_565  S
C467        C476   1.368       .  A
C467        C468   1.380       .  A
C468        C469   1.402       .  A
C468        O474   1.313       .  A
C469        C470   1.398   1_556  A
C469        H478   1.082       .  S
C470        C473   1.364       .  A
O471        C472   1.332       .  A
C472        C473   1.388       .  A
C473        H479   1.082       .  S
O474        C475   1.330       .  A
C475        C476   1.391       .  A
C476        H480   1.082   1_565  S
C481        C486   1.379       .  A
C481        C482   1.407       .  A
C481        O487   1.315   1_545  A
C482        C483   1.403       .  A
C482        H493   1.082   1_545  S
C483        C492   1.371       .  A
C483        C484   1.379       .  A
C484        C485   1.406       .  A
C484        O490   1.314       .  A
C485        C486   1.402       .  A
C485        H494   1.082       .  S
C486        C489   1.370       .  A
O487        C488   1.333   1_565  A
C488        C489   1.391       .  A
C489        H495   1.082       .  S
O490        C491   1.332       .  A
C491        C492   1.391       .  A
C492        H496   1.082       .  S
C497        C502   1.380       .  A
C497        C498   1.406       .  A
C497        O503   1.328       .  A
C498        C499   1.408       .  A
C498        H509   1.082       .  S
C499        C508   1.359       .  A
C499        C500   1.381       .  A
C500        C501   1.401       .  A
C500        O506   1.324       .  A
C501        C502   1.404       .  A
C501        H510   1.082       .  S
C502        C505   1.354       .  A
O503        C504   1.333       .  A
C504        C505   1.392       .  A
C505        H511   1.083       .  S
O506        C507   1.330       .  A
C507        C508   1.395       .  A
C508        H512   1.082       .  S
C513        C518   1.381       .  A
C513        C514   1.402       .  A
C513        O519   1.325       .  A
C514        C515   1.405       .  A
C514        H525   1.081       .  S
C515        C524   1.355       .  A
C515        C516   1.381       .  A
C516        C517   1.401       .  A
C516        O522   1.324       .  A
C517        C518   1.404       .  A
C517        H526   1.081       .  S
C518        C521   1.354       .  A
O519        C520   1.331       .  A
C520        C521   1.392       .  A
C521        H527   1.082       .  S
O522        C523   1.330       .  A
C523        C524   1.393       .  A
C524        H528   1.082       .  S
C529        C534   1.380   1_565  A
C529        C530   1.406       .  A
C529        O535   1.326       .  A
C530        C531   1.408   1_565  A
C530        H541   1.082       .  S
C531        C540   1.360       .  A
C531        C532   1.381       .  A
C532        C533   1.400       .  A
C532        O538   1.322       .  A
C533        C534   1.402       .  A
C533        H542   1.082       .  S
C534        C537   1.354       .  A
O535        C536   1.333       .  A
C536        C537   1.391   1_565  A
C537        H543   1.083       .  S
O538        C539   1.329       .  A
C539        C540   1.395       .  A
C540        H544   1.082       .  S
C545        C550   1.380       .  A
C545        C546   1.402       .  A
C545        O551   1.311       .  A
C546        C547   1.398   1_556  A
C546        H557   1.082       .  S
C547        C556   1.364       .  A
C547        C548   1.380       .  A
C548        C549   1.403   1_554  A
C548        O554   1.312       .  A
C549        C550   1.399       .  A
C549        H558   1.082       .  S
C550        C553   1.366       .  A
O551        C552   1.330       .  A
C552        C553   1.389       .  A
C553        H559   1.082       .  S
O554        C555   1.330       .  A
C555        C556   1.388       .  A
C556        H560   1.082       .  S
C561        C566   1.380       .  A
C561        C562   1.406       .  A
C561        O567   1.315       .  A
C562        C563   1.402       .  A
C562        H573   1.082       .  S
C563        C572   1.369       .  A
C563        C564   1.380       .  A
C564        C565   1.405       .  A
C564        O570   1.314       .  A
C565        C566   1.401       .  A
C565        H574   1.082       .  S
C566        C569   1.368       .  A
O567        C568   1.332       .  A
C568        C569   1.390       .  A
C569        H575   1.082       .  S
O570        C571   1.331       .  A
C571        C572   1.391       .  A
C572        H576   1.082       .  S
C577        C582   1.381       .  A
C577        C578   1.404       .  A
C577        O583   1.326       .  A
C578        C579   1.406       .  A
C578        H589   1.082       .  S
C579        C588   1.358       .  A
C579        C580   1.381       .  A
C580        C581   1.403       .  A
C580        O586   1.325       .  A
C581        C582   1.406       .  A
C581        H590   1.082       .  S
C582        C585   1.357       .  A
O583        C584   1.332       .  A
C584        C585   1.394       .  A
C585        H591   1.083       .  S
O586        C587   1.332       .  A
C587        C588   1.394       .  A
C588        H592   1.083       .  S
C593        C598   1.380       .  A
C593        C594   1.403       .  A
C593        O599   1.312       .  A
C594        C595   1.399       .  A
C594        H605   1.082       .  S
C595        C604   1.365       .  A
C595        C596   1.380       .  A
C596        C597   1.405       .  A
C596        O602   1.314       .  A
C597        C598   1.401       .  A
C597        H606   1.082       .  S
C598        C601   1.368       .  A
O599        C600   1.330       .  A
C600        C601   1.390       .  A
C601        H607   1.082       .  S
O602        C603   1.331       .  A
C603        C604   1.389       .  A
C604        H608   1.082       .  S
C609        C614   1.380       .  A
C609        C610   1.406       .  A
C609        O615   1.316       .  A
C610        C611   1.403       .  A
C610        H621   1.082       .  S
C611        C620   1.369       .  A
C611        C612   1.380       .  A
C612        C613   1.406       .  A
C612        O618   1.316       .  A
C613        C614   1.402       .  A
C613        H622   1.082       .  S
C614        C617   1.368       .  A
O615        C616   1.332       .  A
C616        C617   1.391       .  A
C617        H623   1.082       .  S
O618        C619   1.332       .  A
C619        C620   1.391       .  A
C620        H624   1.082       .  S
C625        C630   1.381       .  A
C625        C626   1.400       .  A
C625        O631   1.322       .  A
C626        C627   1.402   1_556  A
C626        H637   1.082       .  S
C627        C636   1.353       .  A
C627        C628   1.381       .  A
C628        C629   1.401   1_554  A
C628        O634   1.322       .  A
C629        C630   1.403       .  A
C629        H638   1.082       .  S
C630        C633   1.355       .  A
O631        C632   1.330       .  A
C632        C633   1.392       .  A
C633        H639   1.082       .  S
O634        C635   1.330       .  A
C635        C636   1.392       .  A
C636        H640   1.082       .  S
C641        C646   1.381       .  A
C641        C642   1.399       .  A
C641        O647   1.321       .  A
C642        C643   1.401       .  A
C642        H653   1.082       .  S
C643        C652   1.352       .  A
C643        C644   1.382       .  A
C644        C645   1.398       .  A
C644        O650   1.320       .  A
C645        C646   1.401       .  A
C645        H654   1.082       .  S
C646        C649   1.352       .  A
O647        C648   1.329       .  A
C648        C649   1.391       .  A
C649        H655   1.083       .  S
O650        C651   1.328       .  A
C651        C652   1.391       .  A
C652        H656   1.083       .  S
C657        C662   1.380       .  A
C657        C658   1.406       .  A
C657        O663   1.316       .  A
C658        C659   1.403       .  A
C658        H669   1.083       .  S
C659        C668   1.368       .  A
C659        C660   1.379       .  A
C660        C661   1.408       .  A
C660        O666   1.318       .  A
C661        C662   1.404       .  A
C661        H670   1.083       .  S
C662        C665   1.370       .  A
O663        C664   1.332       .  A
C664        C665   1.392       .  A
C665        H671   1.082       .  S
O666        C667   1.333       .  A
C667        C668   1.391       .  A
C668        H672   1.082       .  S
C673        C678   1.380       .  A
C673        C674   1.407       .  A
C673        O679   1.315       .  A
C674        C675   1.403       .  A
C674        H685   1.082       .  S
C675        C684   1.371       .  A
C675        C676   1.380       .  A
C676        C677   1.403       .  A
C676        O682   1.312       .  A
C677        C678   1.399       .  A
C677        H686   1.082       .  S
C678        C681   1.366       .  A
O679        C680   1.332       .  A
C680        C681   1.388       .  A
C681        H687   1.082       .  S
O682        C683   1.331       .  A
C683        C684   1.391       .  A
C684        H688   1.082       .  S
C689        C694   1.380       .  A
C689        C690   1.406       .  A
C689        O695   1.314       .  A
C690        C691   1.402       .  A
C690        H701   1.082       .  S
C691        C700   1.370       .  A
C691        C692   1.380       .  A
C692        C693   1.402       .  A
C692        O698   1.311       .  A
C693        C694   1.398       .  A
C693        H702   1.082       .  S
C694        C697   1.365       .  A
O695        C696   1.332       .  A
C696        C697   1.388       .  A
C697        H703   1.082       .  S
O698        C699   1.330       .  A
C699        C700   1.392       .  A
C700        H704   1.082       .  S
C705        C710   1.380       .  A
C705        C706   1.405   1_545  A
C705        O711   1.315   1_545  A
C706        C707   1.402   1_565  A
C706        H717   1.082       .  S
C707        C716   1.368       .  A
C707        C708   1.380       .  A
C708        C709   1.403       .  A
C708        O714   1.313       .  A
C709        C710   1.399       .  A
C709        H718   1.082       .  S
C710        C713   1.365       .  A
O711        C712   1.332   1_565  A
C712        C713   1.388       .  A
C713        H719   1.082       .  S
O714        C715   1.330       .  A
C715        C716   1.391       .  A
C716        H720   1.082   1_545  S
C721        C726   1.379       .  A
C721        C722   1.406       .  A
C721        O727   1.316       .  A
C722        C723   1.403       .  A
C722        H733   1.082       .  S
C723        C732   1.370       .  A
C723        C724   1.379       .  A
C724        C725   1.406       .  A
C724        O730   1.316       .  A
C725        C726   1.403       .  A
C725        H734   1.082   1_545  S
C726        C729   1.370   1_545  A
O727        C728   1.332   1_545  A
C728        C729   1.391       .  A
C729        H735   1.082       .  S
O730        C731   1.332       .  A
C731        C732   1.392       .  A
C732        H736   1.082       .  S
C737        C742   1.380       .  A
C737        C738   1.400       .  A
C737        O743   1.310       .  A
C738        C739   1.396       .  A
C738        H749   1.082   1_655  S
C739        C748   1.362       .  A
C739        C740   1.380       .  A
C740        C741   1.404   1_565  A
C740        O746   1.312       .  A
C741        C742   1.400   1_545  A
C741        H750   1.082       .  S
C742        C745   1.366       .  A
O743        C744   1.329       .  A
C744        C745   1.390       .  A
C745        H751   1.082   1_565  S
O746        C747   1.331       .  A
C747        C748   1.387       .  A
C748        H752   1.082       .  S
C753        C758   1.381       .  A
C753        C754   1.401       .  A
C753        O759   1.323       .  A
C754        C755   1.404       .  A
C754        H765   1.081       .  S
C755        C764   1.355       .  A
C755        C756   1.381       .  A
C756        C757   1.402       .  A
C756        O762   1.324       .  A
C757        C758   1.404       .  A
C757        H766   1.081       .  S
C758        C761   1.355       .  A
O759        C760   1.330       .  A
C760        C761   1.393       .  A
C761        H767   1.082       .  S
O762        C763   1.330       .  A
C763        C764   1.392       .  A
C764        H768   1.082       .  S
C769        C774   1.381       .  A
C769        C770   1.403       .  A
C769        O775   1.326       .  A
C770        C771   1.406       .  A
C770        H781   1.082       .  S
C771        C780   1.356       .  A
C771        C772   1.381       .  A
C772        C773   1.404       .  A
C772        O778   1.327       .  A
C773        C774   1.407       .  A
C773        H782   1.082       .  S
C774        C777   1.357       .  A
O775        C776   1.332       .  A
C776        C777   1.394       .  A
C777        H783   1.083       .  S
O778        C779   1.332       .  A
C779        C780   1.394       .  A
C780        H784   1.083       .  S
C785        C790   1.381       .  A
C785        C786   1.401       .  A
C785        O791   1.323       .  A
C786        C787   1.403       .  A
C786        H797   1.082       .  S
C787        C796   1.353       .  A
C787        C788   1.381       .  A
C788        C789   1.401       .  A
C788        O794   1.323       .  A
C789        C790   1.404       .  A
C789        H798   1.082       .  S
C790        C793   1.354       .  A
O791        C792   1.330       .  A
C792        C793   1.392       .  A
C793        H799   1.082       .  S
O794        C795   1.330       .  A
C795        C796   1.392       .  A
C796        H800   1.082       .  S
C801        C806   1.380       .  A
C801        C802   1.406       .  A
C801        O807   1.315       .  A
C802        C803   1.402       .  A
C802        H813   1.083       .  S
C803        C812   1.369       .  A
C803        C804   1.380       .  A
C804        C805   1.404       .  A
C804        O810   1.313       .  A
C805        C806   1.400       .  A
C805        H814   1.083       .  S
C806        C809   1.367       .  A
O807        C808   1.332       .  A
C808        C809   1.389       .  A
C809        H815   1.082       .  S
O810        C811   1.331       .  A
C811        C812   1.391       .  A
C812        H816   1.082       .  S
C817        C822   1.380       .  A
C817        C818   1.403       .  A
C817        O823   1.313       .  A
C818        C819   1.399       .  A
C818        H829   1.082       .  S
C819        C828   1.366       .  A
C819        C820   1.380       .  A
C820        C821   1.406       .  A
C820        O826   1.314       .  A
C821        C822   1.402       .  A
C821        H830   1.082       .  S
C822        C825   1.368       .  A
O823        C824   1.331       .  A
C824        C825   1.391       .  A
C825        H831   1.082       .  S
O826        C827   1.332       .  A
C827        C828   1.389       .  A
C828        H832   1.082       .  S
C833        C838   1.380       .  A
C833        C834   1.402       .  A
C833        O839   1.309       .  A
C834        C835   1.397       .  A
C834        H845   1.082       .  S
C835        C844   1.366       .  A
C835        C836   1.380       .  A
C836        C837   1.404       .  A
C836        O842   1.311       .  A
C837        C838   1.399       .  A
C837        H846   1.082       .  S
C838        C841   1.367       .  A
O839        C840   1.329       .  A
C840        C841   1.389       .  A
C841        H847   1.082       .  S
O842        C843   1.331       .  A
C843        C844   1.388       .  A
C844        H848   1.082       .  S
C849        C854   1.380       .  A
C849        C850   1.404   1_545  A
C849        O855   1.312       .  A
C850        C851   1.399   1_565  A
C850        H861   1.082       .  S
C851        C860   1.367   1_545  A
C851        C852   1.380       .  A
C852        C853   1.404       .  A
C852        O858   1.312       .  A
C853        C854   1.400       .  A
C853        H862   1.082       .  S
C854        C857   1.368       .  A
O855        C856   1.330       .  A
C856        C857   1.389       .  A
C857        H863   1.082       .  S
O858        C859   1.330       .  A
C859        C860   1.389   1_545  A
C860        H864   1.082       .  S
C865        C870   1.381       .  A
C865        C866   1.399       .  A
C865        O871   1.321       .  A
C866        C867   1.401       .  A
C866        H877   1.082   1_655  S
C867        C876   1.351       .  A
C867        C868   1.381       .  A
C868        C869   1.401       .  A
C868        O874   1.322       .  A
C869        C870   1.403       .  A
C869        H878   1.082       .  S
C870        C873   1.355       .  A
O871        C872   1.329       .  A
C872        C873   1.392       .  A
C873        H879   1.082       .  S
O874        C875   1.329       .  A
C875        C876   1.391       .  A
C876        H880   1.083   1_655  S
C881        C886   1.380       .  A
C881        C882   1.403       .  A
C881        O887   1.312       .  A
C882        C883   1.399       .  A
C882        H893   1.082       .  S
C883        C892   1.367       .  A
C883        C884   1.380       .  A
C884        C885   1.403       .  A
C884        O890   1.311       .  A
C885        C886   1.399       .  A
C885        H894   1.082       .  S
C886        C889   1.367       .  A
O887        C888   1.330       .  A
C888        C889   1.389       .  A
C889        H895   1.082       .  S
O890        C891   1.330       .  A
C891        C892   1.388       .  A
C892        H896   1.082       .  S
C897        C902   1.381       .  A
C897        C898   1.402       .  A
C897        O903   1.323       .  A
C898        C899   1.404       .  A
C898        H909   1.081       .  S
C899        C908   1.356       .  A
C899        C900   1.381       .  A
C900        C901   1.401       .  A
C900        O906   1.323       .  A
C901        C902   1.403       .  A
C901        H910   1.081       .  S
C902        C905   1.355       .  A
O903        C904   1.330       .  A
C904        C905   1.392       .  A
C905        H911   1.082       .  S
O906        C907   1.330       .  A
C907        C908   1.393       .  A
C908        H912   1.082       .  S
C913        C918   1.380       .  A
C913        C914   1.406       .  A
C913        O919   1.314       .  A
C914        C915   1.402       .  A
C914        H925   1.082       .  S
C915        C924   1.370       .  A
C915        C916   1.380       .  A
C916        C917   1.403       .  A
C916        O922   1.312       .  A
C917        C918   1.399       .  A
C917        H926   1.082       .  S
C918        C921   1.367       .  A
O919        C920   1.331       .  A
C920        C921   1.388       .  A
C921        H927   1.082       .  S
O922        C923   1.331       .  A
C923        C924   1.391       .  A
C924        H928   1.082       .  S
C929        C934   1.381       .  A
C929        C930   1.400       .  A
C929        O935   1.322       .  A
C930        C931   1.402       .  A
C930        H941   1.082       .  S
C931        C940   1.354       .  A
C931        C932   1.380       .  A
C932        C933   1.406       .  A
C932        O938   1.326       .  A
C933        C934   1.408       .  A
C933        H942   1.082       .  S
C934        C937   1.361       .  A
O935        C936   1.329       .  A
C936        C937   1.395       .  A
C937        H943   1.082       .  S
O938        C939   1.333       .  A
C939        C940   1.392       .  A
C940        H944   1.083       .  S
C945        C950   1.380       .  A
C945        C946   1.404       .  A
C945        O951   1.313       .  A
C946        C947   1.400       .  A
C946        H957   1.082       .  S
C947        C956   1.367       .  A
C947        C948   1.380       .  A
C948        C949   1.400       .  A
C948        O954   1.310       .  A
C949        C950   1.397       .  A
C949        H958   1.082       .  S
C950        C953   1.363       .  A
O951        C952   1.331       .  A
C952        C953   1.388       .  A
C953        H959   1.082       .  S
O954        C955   1.329       .  A
C955        C956   1.390       .  A
C956        H960   1.082       .  S
C961        C966   1.380       .  A
C961        C962   1.404       .  A
C961        O967   1.312       .  A
C962        C963   1.400       .  A
C962        H973   1.082       .  S
C963        C972   1.368       .  A
C963        C964   1.380       .  A
C964        C965   1.402       .  A
C964        O970   1.310       .  A
C965        C966   1.398       .  A
C965        H974   1.082       .  S
C966        C969   1.366       .  A
O967        C968   1.331       .  A
C968        C969   1.388       .  A
C969        H975   1.082       .  S
O970        C971   1.330       .  A
C971        C972   1.389       .  A
C972        H976   1.082       .  S
C977        C982   1.380       .  A
C977        C978   1.404       .  A
C977        O983   1.314       .  A
C978        C979   1.400       .  A
C978        H989   1.082       .  S
C979        C988   1.366       .  A
C979        C980   1.380       .  A
C980        C981   1.406       .  A
C980        O986   1.316       .  A
C981        C982   1.403       .  A
C981        H990   1.082       .  S
C982        C985   1.368       .  A
O983        C984   1.331       .  A
C984        C985   1.391       .  A
C985        H991   1.082       .  S
O986        C987   1.332       .  A
C987        C988   1.389       .  A
C988        H992   1.082       .  S
C993        C998   1.380       .  A
C993        C994   1.407       .  A
C993        O999   1.316       .  A
C994        C995   1.403       .  A
C994       H1005   1.082       .  S
C995       C1004   1.370       .  A
C995        C996   1.380       .  A
C996        C997   1.405       .  A
C996       O1002   1.313       .  A
C997        C998   1.401       .  A
C997       H1006   1.082       .  S
C998       C1001   1.368       .  A
O999       C1000   1.332       .  A
C1000      C1001   1.390       .  A
C1001      H1007   1.082       .  S
O1002      C1003   1.332       .  A
C1003      C1004   1.391       .  A
C1004      H1008   1.082       .  S
C1009      C1014   1.380       .  A
C1009      C1010   1.404       .  A
C1009      O1015   1.315       .  A
C1010      C1011   1.401       .  A
C1010      H1021   1.083       .  S
C1011      C1020   1.367       .  A
C1011      C1012   1.380       .  A
C1012      C1013   1.407       .  A
C1012      O1018   1.316       .  A
C1013      C1014   1.403       .  A
C1013      H1022   1.083       .  S
C1014      C1017   1.369       .  A
O1015      C1016   1.331       .  A
C1016      C1017   1.392       .  A
C1017      H1023   1.082       .  S
O1018      C1019   1.333       .  A
C1019      C1020   1.390       .  A
C1020      H1024   1.082       .  S
C1025      C1030   1.380       .  A
C1025      C1026   1.404       .  A
C1025      O1031   1.312       .  A
C1026      C1027   1.399       .  A
C1026      H1037   1.082       .  S
C1027      C1036   1.367       .  A
C1027      C1028   1.380       .  A
C1028      C1029   1.404       .  A
C1028      O1034   1.312       .  A
C1029      C1030   1.399       .  A
C1029      H1038   1.082       .  S
C1030      C1033   1.367       .  A
O1031      C1032   1.331       .  A
C1032      C1033   1.390       .  A
C1033      H1039   1.082       .  S
O1034      C1035   1.330       .  A
C1035      C1036   1.390       .  A
C1036      H1040   1.082       .  S
C1041      C1046   1.380   1_545  A
C1041      C1042   1.405       .  A
C1041      O1047   1.313       .  A
C1042      C1043   1.400       .  A
C1042      H1053   1.082       .  S
C1043      C1052   1.369       .  A
C1043      C1044   1.379       .  A
C1044      C1045   1.407   1_545  A
C1044      O1050   1.315       .  A
C1045      C1046   1.403       .  A
C1045      H1054   1.082       .  S
C1046      C1049   1.371       .  A
O1047      C1048   1.331   1_545  A
C1048      C1049   1.391       .  A
C1049      H1055   1.082       .  S
O1050      C1051   1.333       .  A
C1051      C1052   1.390       .  A
C1052      H1056   1.082       .  S
C1057      C1062   1.380       .  A
C1057      C1058   1.404       .  A
C1057      O1063   1.314       .  A
C1058      C1059   1.400       .  A
C1058      H1069   1.082       .  S
C1059      C1068   1.367       .  A
C1059      C1060   1.380   1_545  A
C1060      C1061   1.406       .  A
C1060      O1066   1.316       .  A
C1061      C1062   1.402   1_565  A
C1061      H1070   1.082       .  S
C1062      C1065   1.369       .  A
O1063      C1064   1.331       .  A
C1064      C1065   1.391       .  A
C1065      H1071   1.082   1_545  S
O1066      C1067   1.332       .  A
C1067      C1068   1.390   1_565  A
C1068      H1072   1.082       .  S
C1073      C1078   1.381       .  A
C1073      C1074   1.402       .  A
C1073      O1079   1.323       .  A
C1074      C1075   1.404       .  A
C1074      H1085   1.082       .  S
C1075      C1084   1.356       .  A
C1075      C1076   1.381       .  A
C1076      C1077   1.404       .  A
C1076      O1082   1.325       .  A
C1077      C1078   1.406       .  A
C1077      H1086   1.082       .  S
C1078      C1081   1.359       .  A
O1079      C1080   1.330       .  A
C1080      C1081   1.394       .  A
C1081      H1087   1.083       .  S
O1082      C1083   1.332       .  A
C1083      C1084   1.393       .  A
C1084      H1088   1.083       .  S
C1089      C1094   1.380       .  A
C1089      C1090   1.405       .  A
C1089      O1095   1.315       .  A
C1090      C1091   1.402       .  A
C1090      H1101   1.082       .  S
C1091      C1100   1.369       .  A
C1091      C1092   1.379       .  A
C1092      C1093   1.407       .  A
C1092      O1098   1.316       .  A
C1093      C1094   1.404       .  A
C1093      H1102   1.082       .  S
C1094      C1097   1.371       .  A
O1095      C1096   1.332       .  A
C1096      C1097   1.391       .  A
C1097      H1103   1.082       .  S
O1098      C1099   1.333       .  A
C1099      C1100   1.391       .  A
C1100      H1104   1.082       .  S
C1105      C1110   1.381       .  A
C1105      C1106   1.401       .  A
C1105      O1111   1.323       .  A
C1106      C1107   1.403       .  A
C1106      H1117   1.081       .  S
C1107      C1116   1.355       .  A
C1107      C1108   1.381       .  A
C1108      C1109   1.402       .  A
C1108      O1114   1.323       .  A
C1109      C1110   1.404       .  A
C1109      H1118   1.081       .  S
C1110      C1113   1.355       .  A
O1111      C1112   1.329       .  A
C1112      C1113   1.392       .  A
C1113      H1119   1.082       .  S
O1114      C1115   1.330       .  A
C1115      C1116   1.392       .  A
C1116      H1120   1.082       .  S
C1121      C1126   1.380       .  A
C1121      C1122   1.404       .  A
C1121      O1127   1.315       .  A
C1122      C1123   1.401       .  A
C1122      H1133   1.083   1_545  S
C1123      C1132   1.367   1_545  A
C1123      C1124   1.380       .  A
C1124      C1125   1.407       .  A
C1124      O1130   1.317       .  A
C1125      C1126   1.404       .  A
C1125      H1134   1.082       .  S
C1126      C1129   1.370       .  A
O1127      C1128   1.331       .  A
C1128      C1129   1.392       .  A
C1129      H1135   1.082       .  S
O1130      C1131   1.333   1_545  A
C1131      C1132   1.390       .  A
C1132      H1136   1.082       .  S
C1137      C1142   1.379       .  A
C1137      C1138   1.406       .  A
C1137      O1143   1.316       .  A
C1138      C1139   1.403       .  A
C1138      H1149   1.082       .  S
C1139      C1148   1.369       .  A
C1139      C1140   1.380       .  A
C1140      C1141   1.403       .  A
C1140      O1146   1.313       .  A
C1141      C1142   1.400       .  A
C1141      H1150   1.082       .  S
C1142      C1145   1.366       .  A
O1143      C1144   1.332       .  A
C1144      C1145   1.390       .  A
C1145      H1151   1.082       .  S
O1146      C1147   1.331       .  A
C1147      C1148   1.391       .  A
C1148      H1152   1.082       .  S
C1153      C1158   1.380       .  A
C1153      C1154   1.404       .  A
C1153      O1159   1.311       .  A
C1154      C1155   1.399       .  A
C1154      H1165   1.082       .  S
C1155      C1164   1.368       .  A
C1155      C1156   1.380       .  A
C1156      C1157   1.406       .  A
C1156      O1162   1.313       .  A
C1157      C1158   1.401       .  A
C1157      H1166   1.082       .  S
C1158      C1161   1.371       .  A
O1159      C1160   1.330       .  A
C1160      C1161   1.391       .  A
C1161      H1167   1.082       .  S
O1162      C1163   1.332       .  A
C1163      C1164   1.389       .  A
C1164      H1168   1.082       .  S
C1169      C1174   1.380       .  A
C1169      C1170   1.403       .  A
C1169      O1175   1.312       .  A
C1170      C1171   1.399       .  A
C1170      H1181   1.082       .  S
C1171      C1180   1.366       .  A
C1171      C1172   1.380       .  A
C1172      C1173   1.405       .  A
C1172      O1178   1.313       .  A
C1173      C1174   1.400       .  A
C1173      H1182   1.082       .  S
C1174      C1177   1.368       .  A
O1175      C1176   1.330       .  A
C1176      C1177   1.389       .  A
C1177      H1183   1.082       .  S
O1178      C1179   1.331       .  A
C1179      C1180   1.389       .  A
C1180      H1184   1.082       .  S
C1185      C1190   1.380       .  A
C1185      C1186   1.402       .  A
C1185      O1191   1.310       .  A
C1186      C1187   1.397       .  A
C1186      H1197   1.082       .  S
C1187      C1196   1.363       .  A
C1187      C1188   1.380       .  A
C1188      C1189   1.405       .  A
C1188      O1194   1.314       .  A
C1189      C1190   1.401       .  A
C1189      H1198   1.082       .  S
C1190      C1193   1.369       .  A
O1191      C1192   1.330       .  A
C1192      C1193   1.390       .  A
C1193      H1199   1.082       .  S
O1194      C1195   1.331       .  A
C1195      C1196   1.388       .  A
C1196      H1200   1.082       .  S
C1201      C1206   1.380       .  A
C1201      C1202   1.404       .  A
C1201      O1207   1.313       .  A
C1202      C1203   1.400       .  A
C1202      H1213   1.082       .  S
C1203      C1212   1.368       .  A
C1203      C1204   1.380       .  A
C1204      C1205   1.402       .  A
C1204      O1210   1.311       .  A
C1205      C1206   1.398       .  A
C1205      H1214   1.082       .  S
C1206      C1209   1.366       .  A
O1207      C1208   1.331       .  A
C1208      C1209   1.388       .  A
C1209      H1215   1.082       .  S
O1210      C1211   1.329       .  A
C1211      C1212   1.390       .  A
C1212      H1216   1.082       .  S
C1217      C1222   1.381       .  A
C1217      C1218   1.401       .  A
C1217      O1223   1.322       .  A
C1218      C1219   1.403       .  A
C1218      H1229   1.082       .  S
C1219      C1228   1.354       .  A
C1219      C1220   1.381       .  A
C1220      C1221   1.403       .  A
C1220      O1226   1.324       .  A
C1221      C1222   1.405       .  A
C1221      H1230   1.081       .  S
C1222      C1225   1.358       .  A
O1223      C1224   1.329       .  A
C1224      C1225   1.392       .  A
C1225      H1231   1.082       .  S
O1226      C1227   1.331       .  A
C1227      C1228   1.392       .  A
C1228      H1232   1.082       .  S
C1233      C1238   1.380       .  A
C1233      C1234   1.404       .  A
C1233      O1239   1.312       .  A
C1234      C1235   1.400       .  A
C1234      H1245   1.082   1_545  S
C1235      C1244   1.368   1_545  A
C1235      C1236   1.380       .  A
C1236      C1237   1.403       .  A
C1236      O1242   1.311       .  A
C1237      C1238   1.398       .  A
C1237      H1246   1.082       .  S
C1238      C1241   1.366       .  A
O1239      C1240   1.330       .  A
C1240      C1241   1.388       .  A
C1241      H1247   1.082       .  S
O1242      C1243   1.330       .  A
C1243      C1244   1.390   1_545  A
C1244      H1248   1.082       .  S
C1249      C1254   1.380       .  A
C1249      C1250   1.404       .  A
C1249      O1255   1.314       .  A
C1250      C1251   1.400       .  A
C1250      H1261   1.083       .  S
C1251      C1260   1.366       .  A
C1251      C1252   1.380       .  A
C1252      C1253   1.405       .  A
C1252      O1258   1.315       .  A
C1253      C1254   1.402       .  A
C1253      H1262   1.083       .  S
C1254      C1257   1.368       .  A
O1255      C1256   1.331       .  A
C1256      C1257   1.391       .  A
C1257      H1263   1.082       .  S
O1258      C1259   1.332       .  A
C1259      C1260   1.390       .  A
C1260      H1264   1.082       .  S
C1265      C1270   1.380       .  A
C1265      C1266   1.406       .  A
C1265      O1271   1.315       .  A
C1266      C1267   1.402       .  A
C1266      H1277   1.082       .  S
C1267      C1276   1.368       .  A
C1267      C1268   1.380       .  A
C1268      C1269   1.399       .  A
C1268      O1274   1.309       .  A
C1269      C1270   1.395       .  A
C1269      H1278   1.082       .  S
C1270      C1273   1.360       .  A
O1271      C1272   1.332       .  A
C1272      C1273   1.387       .  A
C1273      H1279   1.082       .  S
O1274      C1275   1.328       .  A
C1275      C1276   1.391       .  A
C1276      H1280   1.082       .  S
C1281      C1286   1.380       .  A
C1281      C1282   1.405       .  A
C1281      O1287   1.313       .  A
C1282      C1283   1.401       .  A
C1282      H1293   1.082       .  S
C1283      C1292   1.367       .  A
C1283      C1284   1.380       .  A
C1284      C1285   1.401       .  A
C1284      O1290   1.311       .  A
C1285      C1286   1.397       .  A
C1285      H1294   1.082       .  S
C1286      C1289   1.363       .  A
O1287      C1288   1.331       .  A
C1288      C1289   1.387       .  A
C1289      H1295   1.082       .  S
O1290      C1291   1.329       .  A
C1291      C1292   1.390       .  A
C1292      H1296   1.082       .  S
C1297      C1302   1.380       .  A
C1297      C1298   1.404       .  A
C1297      O1303   1.314       .  A
C1298      C1299   1.400       .  A
C1298      H1309   1.083       .  S
C1299      C1308   1.366       .  A
C1299      C1300   1.380       .  A
C1300      C1301   1.406       .  A
C1300      O1306   1.316       .  A
C1301      C1302   1.403       .  A
C1301      H1310   1.083       .  S
C1302      C1305   1.369       .  A
O1303      C1304   1.331       .  A
C1304      C1305   1.391       .  A
C1305      H1311   1.082       .  S
O1306      C1307   1.332       .  A
C1307      C1308   1.389       .  A
C1308      H1312   1.082       .  S
C1313      C1318   1.380       .  A
C1313      C1314   1.404       .  A
C1313      O1319   1.312       .  A
C1314      C1315   1.400       .  A
C1314      H1325   1.082       .  S
C1315      C1324   1.367       .  A
C1315      C1316   1.380       .  A
C1316      C1317   1.403       .  A
C1316      O1322   1.312       .  A
C1317      C1318   1.398       .  A
C1317      H1326   1.082       .  S
C1318      C1321   1.365       .  A
O1319      C1320   1.331       .  A
C1320      C1321   1.388       .  A
C1321      H1327   1.082       .  S
O1322      C1323   1.330       .  A
C1323      C1324   1.389       .  A
C1324      H1328   1.082       .  S
C1329      C1334   1.380       .  A
C1329      C1330   1.403       .  A
C1329      O1335   1.314       .  A
C1330      C1331   1.400       .  A
C1330      H1341   1.082       .  S
C1331      C1340   1.365       .  A
C1331      C1332   1.380       .  A
C1332      C1333   1.405       .  A
C1332      O1338   1.315       .  A
C1333      C1334   1.402       .  A
C1333      H1342   1.082       .  S
C1334      C1337   1.367       .  A
O1335      C1336   1.331       .  A
C1336      C1337   1.390       .  A
C1337      H1343   1.082       .  S
O1338      C1339   1.331       .  A
C1339      C1340   1.389       .  A
C1340      H1344   1.082       .  S
C1345      C1350   1.381       .  A
C1345      C1346   1.401   1_655  A
C1345      O1351   1.321       .  A
C1346      C1347   1.402       .  A
C1346      H1357   1.082       .  S
C1347      C1356   1.354       .  A
C1347      C1348   1.382   1_455  A
C1348      C1349   1.397       .  A
C1348      O1354   1.318       .  A
C1349      C1350   1.399       .  A
C1349      H1358   1.082       .  S
C1350      C1353   1.350       .  A
O1351      C1352   1.329       .  A
C1352      C1353   1.390       .  A
C1353      H1359   1.083       .  S
O1354      C1355   1.327       .  A
C1355      C1356   1.391   1_655  A
C1356      H1360   1.082       .  S
C1361      C1366   1.380       .  A
C1361      C1362   1.406       .  A
C1361      O1367   1.314       .  A
C1362      C1363   1.402       .  A
C1362      H1373   1.082       .  S
C1363      C1372   1.370       .  A
C1363      C1364   1.380       .  A
C1364      C1365   1.405       .  A
C1364      O1370   1.313       .  A
C1365      C1366   1.401       .  A
C1365      H1374   1.082       .  S
C1366      C1369   1.369       .  A
O1367      C1368   1.332       .  A
C1368      C1369   1.390       .  A
C1369      H1375   1.082       .  S
O1370      C1371   1.331       .  A
C1371      C1372   1.390       .  A
C1372      H1376   1.082       .  S
C1377      C1382   1.381       .  A
C1377      C1378   1.402       .  A
C1377      O1383   1.323       .  A
C1378      C1379   1.404       .  A
C1378      H1389   1.081       .  S
C1379      C1388   1.355       .  A
C1379      C1380   1.381       .  A
C1380      C1381   1.402       .  A
C1380      O1386   1.324       .  A
C1381      C1382   1.405       .  A
C1381      H1390   1.081       .  S
C1382      C1385   1.356       .  A
O1383      C1384   1.330       .  A
C1384      C1385   1.393       .  A
C1385      H1391   1.082       .  S
O1386      C1387   1.330       .  A
C1387      C1388   1.392       .  A
C1388      H1392   1.082       .  S
C1393      C1398   1.379       .  A
C1393      C1394   1.406       .  A
C1393      O1399   1.317       .  A
C1394      C1395   1.403       .  A
C1394      H1405   1.083       .  S
C1395      C1404   1.368       .  A
C1395      C1396   1.380       .  A
C1396      C1397   1.407       .  A
C1396      O1402   1.318       .  A
C1397      C1398   1.404       .  A
C1397      H1406   1.083   1_545  S
C1398      C1401   1.370   1_545  A
O1399      C1400   1.333       .  A
C1400      C1401   1.392   1_545  A
C1401      H1407   1.082       .  S
O1402      C1403   1.333       .  A
C1403      C1404   1.392       .  A
C1404      H1408   1.082       .  S
C1409      C1414   1.380       .  A
C1409      C1410   1.404       .  A
C1409      O1415   1.313       .  A
C1410      C1411   1.400       .  A
C1410      H1421   1.082   1_545  S
C1411      C1420   1.367   1_545  A
C1411      C1412   1.380       .  A
C1412      C1413   1.401       .  A
C1412      O1418   1.310       .  A
C1413      C1414   1.397       .  A
C1413      H1422   1.082       .  S
C1414      C1417   1.364       .  A
O1415      C1416   1.331       .  A
C1416      C1417   1.387       .  A
C1417      H1423   1.082       .  S
O1418      C1419   1.329       .  A
C1419      C1420   1.389   1_545  A
C1420      H1424   1.082       .  S
C1425      C1430   1.381       .  A
C1425      C1426   1.401       .  A
C1425      O1431   1.322       .  A
C1426      C1427   1.403       .  A
C1426      H1437   1.082   1_545  S
C1427      C1436   1.355       .  A
C1427      C1428   1.381       .  A
C1428      C1429   1.401       .  A
C1428      O1434   1.322       .  A
C1429      C1430   1.403       .  A
C1429      H1438   1.082       .  S
C1430      C1433   1.355       .  A
O1431      C1432   1.330       .  A
C1432      C1433   1.392       .  A
C1433      H1439   1.082       .  S
O1434      C1435   1.330       .  A
C1435      C1436   1.392       .  A
C1436      H1440   1.082   1_545  S
C1441      C1446   1.380       .  A
C1441      C1442   1.404       .  A
C1441      O1447   1.314       .  A
C1442      C1443   1.401       .  A
C1442      H1453   1.083       .  S
C1443      C1452   1.367       .  A
C1443      C1444   1.380       .  A
C1444      C1445   1.405       .  A
C1444      O1450   1.314       .  A
C1445      C1446   1.401       .  A
C1445      H1454   1.083       .  S
C1446      C1449   1.368       .  A
O1447      C1448   1.331       .  A
C1448      C1449   1.390       .  A
C1449      H1455   1.082       .  S
O1450      C1451   1.331       .  A
C1451      C1452   1.390       .  A
C1452      H1456   1.082       .  S
C1457      C1462   1.380       .  A
C1457      C1458   1.403   1_565  A
C1457      O1463   1.312   1_565  A
C1458      C1459   1.399   1_545  A
C1458      H1469   1.082       .  S
C1459      C1468   1.366   1_565  A
C1459      C1460   1.380       .  A
C1460      C1461   1.401       .  A
C1460      O1466   1.310       .  A
C1461      C1462   1.397       .  A
C1461      H1470   1.082       .  S
C1462      C1465   1.363       .  A
O1463      C1464   1.330   1_545  A
C1464      C1465   1.387       .  A
C1465      H1471   1.082       .  S
O1466      C1467   1.329       .  A
C1467      C1468   1.389   1_565  A
C1468      H1472   1.082       .  S
