geometry optimzed in LAMMPS
_audit_creation_date              2020-12-01 
_audit_creation_method            'lammps2cif' 
_symmetry_space_group_name_H-M    'P1' 
_symmetry_Int_Tables_number       1 
_symmetry_cell_setting            triclinic 
loop_ 
_symmetry_equiv_pos_as_xyz 
  x,y,z 
_cell_length_a                    41.15416619 
_cell_length_b                    31.738463178523457 
_cell_length_c                    43.103720437220474 
_cell_angle_alpha                 90.13836746257422 
_cell_angle_beta                  90.17555562058796 
_cell_angle_gamma                 90.24695760399317 
loop_ 
_atom_site_label 
_atom_site_type_symbol 
_atom_site_fract_x 
_atom_site_fract_y 
_atom_site_fract_z 
_atom_site_charge 
O1          O  0.46636423  0.64052321  0.45463190    -0.86800
O2          O  0.47536013  0.71802130  0.47967993    -0.83900
C3          C  0.46979421  0.75485673  0.48896279     0.96600
O4          O  0.44128425  0.76565655  0.49598599    -0.83900
O5          O  0.40463336  0.75910814  0.44074807    -0.86600
C6          C  0.38720849  0.74301448  0.41954039     1.01100
O7          O  0.37526973  0.70654643  0.42287737    -0.79300
O8          O  0.43184258  0.66010630  0.41838781    -0.79500
C9          C  0.46004780  0.64834092  0.42637735     1.01100
O10         O  0.42699720  0.61739438  0.00785221    -0.86800
O11         O  0.43949476  0.69460267  0.03483629    -0.83900
C12         C  0.41286228  0.70847539  0.04545547     0.96600
O13         O  0.39088754  0.72134435  0.02746681    -0.83900
O14         O  0.35242354  0.72322805  0.47634887    -0.86500
C15         C  0.33910718  0.68782691  0.48087145     1.01100
O16         O  0.35357370  0.65423414  0.47310642    -0.79400
O17         O  0.40719706  0.60117850  0.46229138    -0.79500
C18         C  0.41610683  0.59024463  0.48912394     1.01100
Cr19       Cr  0.44929438  0.66902751  0.99293865     1.93700
Cr20       Cr  0.39865193  0.73871898  0.48421471     1.93200
Cr21       Cr  0.39337443  0.65758373  0.44630916     1.39100
O22         O  0.41393104  0.68834762  0.47463134    -1.24600
O23         O  0.46878780  0.36522722  0.05795631    -0.86800
O24         O  0.47849170  0.28769825  0.03357013    -0.83900
C25         C  0.47325932  0.25031852  0.02513750     0.96600
O26         O  0.44477443  0.23833490  0.01856431    -0.83900
O27         O  0.40760137  0.24616807  0.07313567    -0.86600
C28         C  0.38970557  0.26241954  0.09370717     1.01100
O29         O  0.37760221  0.29848389  0.08956439    -0.79300
O30         O  0.43441011  0.34518801  0.09414843    -0.79500
C31         C  0.46255969  0.35734938  0.08620194     1.01100
O32         O  0.42928835  0.38667191  0.00419384    -0.86800
O33         O  0.44240635  0.30919842  0.47814129    -0.83900
C34         C  0.41594896  0.29412798  0.46769192     0.96600
O35         O  0.39432094  0.28064239  0.48573488    -0.83900
O36         O  0.35572281  0.28042644  0.03621520    -0.86500
C37         C  0.34268112  0.31556803  0.03049174     1.01100
O38         O  0.35681735  0.34952256  0.03834784    -0.79400
O39         O  0.41009201  0.40316774  0.04970866    -0.79500
C40         C  0.41836620  0.41388178  0.02270332     1.01100
Cr41       Cr  0.45202545  0.33577101  0.01976128     1.93700
Cr42       Cr  0.40192957  0.26498898  0.02928817     1.93200
Cr43       Cr  0.39613500  0.34699124  0.06588018     1.39100
O44         O  0.41690050  0.31593590  0.03814666    -1.24600
O45         O  0.21819611  0.13925089  0.45488728    -0.86800
O46         O  0.22798727  0.21634476  0.48004552    -0.83900
C47         C  0.22302176  0.25355467  0.48880565     0.96600
O48         O  0.19467856  0.26521379  0.49569576    -0.83900
O49         O  0.15828116  0.25832446  0.44036042    -0.86600
C50         C  0.14044995  0.24244352  0.41939256     1.01100
O51         O  0.12787667  0.20637494  0.42306376    -0.79300
O52         O  0.18355370  0.15848898  0.41857574    -0.79500
C53         C  0.21172821  0.14660576  0.42655732     1.01100
O54         O  0.17850603  0.11671451  0.00828504    -0.86800
O55         O  0.19129998  0.19376466  0.03511435    -0.83900
C56         C  0.16476657  0.20848282  0.04540189     0.96600
O57         O  0.14343025  0.22234581  0.02716814    -0.83900
O58         O  0.10551248  0.22409331  0.47591880    -0.86500
C59         C  0.09208174  0.18915315  0.48175863     1.01100
O60         O  0.10582957  0.15508254  0.47399221    -0.79400
O61         O  0.15837795  0.10064857  0.46288452    -0.79500
C62         C  0.16717036  0.08966760  0.48973344     1.01100
Cr63       Cr  0.20130465  0.16796834  0.99327409     1.93700
Cr64       Cr  0.15178293  0.23885796  0.48390782     1.93200
Cr65       Cr  0.14529304  0.15722524  0.44673172     1.39100
O66         O  0.16635621  0.18793404  0.47475692    -1.24600
O67         O  0.21630769  0.86218306  0.05708775    -0.86800
O68         O  0.22466386  0.78512482  0.03144236    -0.83900
C69         C  0.21896080  0.74827845  0.02206872     0.96600
O70         O  0.19025700  0.73720689  0.01536002    -0.83900
O71         O  0.15368359  0.74375614  0.07072223    -0.86600
C72         C  0.13646142  0.75980433  0.09194023     1.01100
O73         O  0.12484930  0.79633650  0.08865269    -0.79300
O74         O  0.18207693  0.84193803  0.09332943    -0.79500
C75         C  0.21022545  0.85386231  0.08527658     1.01100
O76         O  0.17652534  0.88598229  0.00415500    -0.86800
O77         O  0.18840328  0.80915416  0.47678734    -0.83900
C78         C  0.16169626  0.79518360  0.46612560     0.96600
O79         O  0.13980506  0.78199652  0.48402763    -0.83900
O80         O  0.10184629  0.78057329  0.03514886    -0.86500
C81         C  0.08914871  0.81623155  0.03056036     1.01100
O82         O  0.10394118  0.84957148  0.03868580    -0.79400
O83         O  0.15803140  0.90190025  0.05006933    -0.79500
C84         C  0.16626670  0.91303963  0.02311983     1.01100
Cr85       Cr  0.19874751  0.83422568  0.01867260     1.93700
Cr86       Cr  0.14776893  0.76442131  0.02725504     1.93200
Cr87       Cr  0.14357276  0.84534456  0.06555173     1.39100
O88         O  0.16354853  0.81467837  0.03702890    -1.24600
O89         O  0.06046648  0.36400831  0.20563447    -0.86800
O90         O  0.05067629  0.28696980  0.23057900    -0.83900
C91         C  0.05568676  0.24991028  0.23954506     0.96600
O92         O  0.08415904  0.23800373  0.24585905    -0.83900
O93         O  0.12019066  0.24444612  0.19025516    -0.86600
C94         C  0.13782767  0.26030477  0.16925938     1.01100
O95         O  0.15027860  0.29644673  0.17294649    -0.79300
O96         O  0.09427738  0.34394877  0.16896927    -0.79500
C97         C  0.06638020  0.35631260  0.17728279     1.01100
O98         O  0.10105245  0.38606488  0.25861711    -0.86800
O99         O  0.08791067  0.30932486  0.28529465    -0.83900
C100        C  0.11440830  0.29448715  0.29555753     0.96600
O101        O  0.13571759  0.28071443  0.27730674    -0.83900
O102        O  0.17318802  0.27901387  0.22586214    -0.86500
C103        C  0.18660239  0.31415252  0.23132327     1.01100
O104        O  0.17265043  0.34806264  0.22362795    -0.79400
O105        O  0.11988146  0.40200069  0.21286713    -0.79500
C106        C  0.11163513  0.41306461  0.23981108     1.01100
Cr107      Cr  0.07770556  0.33514563  0.24369693     1.93700
Cr108      Cr  0.12700696  0.26412335  0.23392548     1.93200
Cr109      Cr  0.13292531  0.34552257  0.19670951     1.39100
O110        O  0.11232238  0.31495790  0.22489217    -1.24600
O111        O  0.05753401  0.63879449  0.30684830    -0.86800
O112        O  0.04800812  0.71549025  0.28142326    -0.83900
C113        C  0.05332728  0.75265205  0.27272525     0.96600
O114        O  0.08180138  0.76441439  0.26615439    -0.83900
O115        O  0.11843770  0.75813813  0.32128688    -0.86600
C116        C  0.13620595  0.74249820  0.34225806     1.01100
O117        O  0.14841376  0.70637010  0.33868001    -0.79300
O118        O  0.09181643  0.65948008  0.34322173    -0.79500
C119        C  0.06366116  0.64728100  0.33510956     1.01100
O120        O  0.09763517  0.61610210  0.25369429    -0.86800
O121        O  0.08451837  0.69272847  0.22657410    -0.83900
C122        C  0.11091231  0.70782527  0.21613397     0.96600
O123        O  0.13253560  0.72155168  0.23429253    -0.83900
O124        O  0.17067529  0.72312899  0.28554815    -0.86500
C125        C  0.18375668  0.68793847  0.28011281     1.01100
O126        O  0.16970440  0.65412075  0.28821262    -0.79400
O127        O  0.11649158  0.60068597  0.29960521    -0.79500
C128        C  0.10856622  0.58942632  0.27256263     1.01100
Cr129      Cr  0.07462275  0.66718271  0.26843703     1.93700
Cr130      Cr  0.12456005  0.73822113  0.27771647     1.93200
Cr131      Cr  0.13022835  0.65721080  0.31532787     1.39100
O132        O  0.10958624  0.68751498  0.28701482    -1.24600
O133        O  0.30887139  0.13872715  0.30658692    -0.86800
O134        O  0.30011151  0.21655132  0.28295126    -0.83900
C135        C  0.30555155  0.25377807  0.27454059     0.96600
O136        O  0.33408583  0.26553326  0.26826829    -0.83900
O137        O  0.37030483  0.25731116  0.32360070    -0.86600
C138        C  0.38803392  0.24093603  0.34429901     1.01100
O139        O  0.39983201  0.20464150  0.34029416    -0.79300
O140        O  0.34320303  0.15766304  0.34339747    -0.79500
C141        C  0.31501587  0.14595182  0.33501520     1.01100
O142        O  0.34880295  0.11756280  0.25311866    -0.86800
O143        O  0.33660673  0.19553043  0.22770706    -0.83900
C144        C  0.36320592  0.21052937  0.21768683     0.96600
O145        O  0.38483839  0.22344513  0.23615945    -0.83900
O146        O  0.42271284  0.22354477  0.28769261    -0.86500
C147        C  0.43594329  0.18854033  0.28200564     1.01100
O148        O  0.42161160  0.15443369  0.28898390    -0.79400
O149        O  0.36799988  0.10057335  0.29861853    -0.79500
C150        C  0.35925969  0.09009711  0.27160458     1.01100
Cr151      Cr  0.32634631  0.16849005  0.26892593     1.93700
Cr152      Cr  0.37663522  0.23880619  0.27975486     1.93200
Cr153      Cr  0.38180812  0.15641341  0.31573315     1.39100
O154        O  0.36143283  0.18782062  0.28796436    -1.24600
O155        O  0.30787124  0.86328204  0.20453443    -0.86800
O156        O  0.29793706  0.78666243  0.22980084    -0.83900
C157        C  0.30304182  0.74938531  0.23820117     0.96600
O158        O  0.33146075  0.73760632  0.24484178    -0.83900
O159        O  0.36844000  0.74447286  0.19002740    -0.86600
C160        C  0.38646932  0.76029794  0.16933777     1.01100
O161        O  0.39867468  0.79652330  0.17316977    -0.79300
O162        O  0.34212394  0.84282306  0.16837737    -0.79500
C163        C  0.31402377  0.85482633  0.17634729     1.01100
O164        O  0.34762943  0.88642510  0.25775400    -0.86800
O165        O  0.33459213  0.80966396  0.28491291    -0.83900
C166        C  0.36093204  0.79458701  0.29541791     0.96600
O167        O  0.38232284  0.78059681  0.27733394    -0.83900
O168        O  0.42058540  0.77950998  0.22647101    -0.86500
C169        C  0.43395869  0.81476541  0.23164345     1.01100
O170        O  0.41993300  0.84860835  0.22378215    -0.79400
O171        O  0.36669745  0.90203464  0.21204213    -0.79500
C172        C  0.35812735  0.91337015  0.23883475     1.01100
Cr173      Cr  0.32473494  0.83504220  0.24297639     1.93700
Cr174      Cr  0.37437943  0.76417245  0.23378247     1.93200
Cr175      Cr  0.38045255  0.84544792  0.19648032     1.39100
O176        O  0.35966975  0.81493214  0.22460016    -1.24600
C177        C  0.35816696  0.01406608  0.28605302    -0.14800
C178        C  0.35960687  0.04506029  0.26281512     0.07300
C179        C  0.36052773  0.03244940  0.23161462    -0.14800
C180        C  0.36058764  0.98958541  0.22388077    -0.14800
C181        C  0.35905738  0.95859587  0.24718073     0.07300
C182        C  0.35756867  0.97131444  0.27831364    -0.14800
H183        H  0.35695948  0.02290736  0.31030787     0.11300
H184        H  0.36146286  0.05567718  0.21326734     0.11300
H185        H  0.36135282  0.98069419  0.19961928     0.11300
H186        H  0.35614266  0.94820433  0.29671097     0.11300
C187        C  0.24602163  0.73009278  0.22656641    -0.14800
C188        C  0.27474546  0.72133980  0.24276187     0.07300
C189        C  0.27389245  0.69206357  0.26728861    -0.14800
C190        C  0.24397290  0.67602786  0.27780895    -0.14800
C191        C  0.21498017  0.68907012  0.26365084     0.07300
C192        C  0.21651314  0.71427777  0.23700168    -0.14800
H193        H  0.24596886  0.75230448  0.20750574     0.11300
H194        H  0.29578215  0.68497596  0.28023467     0.11300
H195        H  0.24328555  0.65717579  0.29870512     0.11300
H196        H  0.19452207  0.72540694  0.22605298     0.11300
C197        C  0.99688818  0.77328886  0.28474976    -0.14800
C198        C  0.02527678  0.78064128  0.26776475     0.07300
C199        C  0.02425508  0.80852044  0.24238423    -0.14800
C200        C  0.49438753  0.82485961  0.23213893    -0.14800
C201        C  0.46560517  0.81362434  0.24745070     0.07300
C202        C  0.46741763  0.78948425  0.27461039    -0.14800
H203        H  0.99698911  0.75197855  0.30435993     0.11300
H204        H  0.04586019  0.81428091  0.22872375     0.11300
H205        H  0.49342305  0.84254076  0.21070091     0.11300
H206        H  0.44551328  0.77940779  0.28623917     0.11300
C207        C  0.21954982  0.28961702  0.27496162    -0.14800
C208        C  0.21803588  0.31305832  0.24746269     0.07300
C209        C  0.24696344  0.32445290  0.23249552    -0.14800
C210        C  0.27677471  0.30886813  0.24343646    -0.14800
C211        C  0.27758568  0.28166869  0.26920778     0.07300
C212        C  0.24899501  0.27430235  0.28586857    -0.14800
H213        H  0.19755320  0.27948387  0.28637194     0.11300
H214        H  0.24621781  0.34166496  0.21084331     0.11300
H215        H  0.29854934  0.31454341  0.23000098     0.11300
H216        H  0.24896510  0.25346746  0.30575546     0.11300
C217        C  0.99646270  0.17890067  0.28136241    -0.14800
C218        C  0.46754607  0.19022414  0.26625743     0.07300
C219        C  0.46918973  0.21437138  0.23910421    -0.14800
C220        C  0.99869033  0.23003255  0.22851504    -0.14800
C221        C  0.02732883  0.22236953  0.24512401     0.07300
C222        C  0.02637330  0.19483851  0.27072465    -0.14800
H223        H  0.99565246  0.16128637  0.30283453     0.11300
H224        H  0.44722937  0.22466319  0.22769593     0.11300
H225        H  0.49869955  0.25116236  0.20879894     0.11300
H226        H  0.04815427  0.18894418  0.28416812     0.11300
C227        C  0.11283463  0.48915284  0.22503568    -0.14800
C228        C  0.11258280  0.45815115  0.24832947     0.07300
C229        C  0.11174564  0.47073033  0.27952386    -0.14800
C230        C  0.11114969  0.51347804  0.28727894    -0.14800
C231        C  0.11071409  0.54445713  0.26398518     0.07300
C232        C  0.11158129  0.53190615  0.23278370    -0.14800
H233        H  0.11319873  0.48032573  0.20075103     0.11300
H234        H  0.11146844  0.44753066  0.29790947     0.11300
H235        H  0.11028889  0.52227250  0.31155737     0.11300
H236        H  0.11130740  0.55511909  0.21440787     0.11300
C237        C  0.26937167  0.85840351  0.09915678    -0.14800
C238        C  0.23665598  0.85764789  0.10863338     0.07300
C239        C  0.22973660  0.85795366  0.14050787    -0.14800
C240        C  0.25493565  0.85863280  0.16239491    -0.14800
C241        C  0.28765280  0.85828923  0.15293264     0.07300
C242        C  0.29458072  0.85836277  0.12105230    -0.14800
H243        H  0.27553621  0.85770680  0.07475189     0.11300
H244        H  0.20483515  0.85715978  0.14854721     0.11300
H245        H  0.24875817  0.85805690  0.18679685     0.11300
H246        H  0.31948728  0.85784680  0.11302486     0.11300
C247        C  0.12601232  0.79741456  0.41904235    -0.14800
C248        C  0.15679251  0.79079533  0.43241978     0.07300
C249        C  0.18185457  0.77464316  0.41406877    -0.14800
C250        C  0.17543922  0.76156391  0.38373214    -0.14800
C251        C  0.14407809  0.76536905  0.37103898     0.07300
C252        C  0.11972956  0.78506684  0.38838536    -0.14800
H253        H  0.10656343  0.81077032  0.43261951     0.11300
H254        H  0.20573288  0.76922001  0.42389446     0.11300
H255        H  0.19460106  0.74647231  0.37064682     0.04900
H256        H  0.09538062  0.78812497  0.37906639     0.11300
C257        C  0.14707803  0.70702989  0.16948717    -0.14800
C258        C  0.11598780  0.71242927  0.18239906     0.07300
C259        C  0.09075913  0.72730822  0.16353124    -0.14800
C260        C  0.09716685  0.74003865  0.13312060    -0.14800
C261        C  0.12869495  0.73707875  0.12080152     0.07300
C262        C  0.15332899  0.71887544  0.13876121    -0.14800
H263        H  0.16678879  0.69497586  0.18349661     0.11300
H264        H  0.06666437  0.73192858  0.17297192     0.11300
H265        H  0.07781101  0.75415776  0.11964776     0.11300
H266        H  0.17784101  0.71666230  0.12984098     0.11300
C267        C  0.16735969  0.03225478  0.02977303    -0.14800
C268        C  0.16561860  0.04458122  0.99854584     0.07300
C269        C  0.16351486  0.01323000  0.97546365    -0.14800
C270        C  0.16370688  0.97050215  0.98338017    -0.14800
C271        C  0.16529637  0.95819123  0.01458699     0.07300
C272        C  0.16685955  0.98950741  0.03772454    -0.14800
H273        H  0.16908951  0.05565124  0.04804322     0.11300
H274        H  0.16240525  0.02171916  0.95116373     0.11300
H275        H  0.16250569  0.94707713  0.96509345     0.11300
H276        H  0.16840350  0.98092202  0.06198786     0.11300
C277        C  0.12774264  0.20758577  0.09140924    -0.14800
C278        C  0.15916431  0.21267360  0.07906615     0.07300
C279        C  0.18422148  0.22720790  0.09840473    -0.14800
C280        C  0.17739383  0.24002263  0.12870224    -0.14800
C281        C  0.14558405  0.23756977  0.14041618     0.07300
C282        C  0.12101262  0.21969233  0.12200605    -0.14800
H283        H  0.10817584  0.19560957  0.07705311     0.11300
H284        H  0.20855605  0.23155546  0.08941289     0.11300
H285        H  0.19670135  0.25385459  0.14256773     0.11300
H286        H  0.09629754  0.21784697  0.13048354     0.11300
C287        C  0.15732958  0.28380359  0.37280568    -0.14800
C288        C  0.13276249  0.26509463  0.39057116     0.07300
C289        C  0.10115957  0.26200006  0.37828279    -0.14800
C290        C  0.09461867  0.27481518  0.34796188    -0.14800
C291        C  0.11976897  0.29001416  0.32920647     0.07300
C292        C  0.15090530  0.29587635  0.34215739    -0.14800
H293        H  0.18186602  0.28630812  0.38180893     0.11300
H294        H  0.08183693  0.24767859  0.39169534     0.11300
H295        H  0.07047087  0.26998891  0.33848412     0.11300
H296        H  0.17047523  0.30849682  0.32826945     0.11300
C297        C  0.23070837  0.14196125  0.37101376    -0.14800
C298        C  0.23786546  0.14207788  0.40293501     0.07300
C299        C  0.27068763  0.14085115  0.41222527    -0.14800
C300        C  0.29571030  0.14094896  0.39024097    -0.14800
C301        C  0.28860046  0.14159448  0.35834854     0.07300
C302        C  0.25576021  0.14135959  0.34899619    -0.14800
H303        H  0.20574709  0.14306789  0.36304074     0.11300
H304        H  0.27713132  0.14131920  0.43660184     0.11300
H305        H  0.32067730  0.14128761  0.39825097     0.11300
H306        H  0.24939255  0.14226952  0.32460933     0.11300
C307        C  0.00197874  0.19314618  0.49561099    -0.14800
C308        C  0.50146828  0.22246740  0.02023282     0.07300
C309        C  0.03044517  0.23164653  0.03599966    -0.14800
C310        C  0.05981242  0.21630512  0.02501855    -0.14800
C311        C  0.06095402  0.19080278  0.49841535     0.07300
C312        C  0.03173992  0.17738138  0.48465884    -0.14800
H313        H  0.97990480  0.18577104  0.48294103     0.11300
H314        H  0.53078134  0.25391973  0.05509955     0.11300
H315        H  0.08194482  0.22792630  0.03557127     0.11300
H316        H  0.03210371  0.15835528  0.46377479     0.11300
C317        C  0.28242561  0.32728352  0.02835128    -0.14800
C318        C  0.31130915  0.31424600  0.01409040     0.07300
C319        C  0.30955493  0.28887563  0.98744216    -0.14800
C320        C  0.27995290  0.27290815  0.47710881    -0.14800
C321        C  0.25137028  0.28162879  0.49341754     0.07300
C322        C  0.25242088  0.31107452  0.01794465    -0.14800
H323        H  0.28329353  0.34628880  0.04924167     0.11300
H324        H  0.33148323  0.27778026  0.97640827     0.11300
H325        H  0.27984296  0.25063067  0.45801340     0.11300
H326        H  0.23064616  0.31820679  0.03095548     0.11300
C327        C  0.02160557  0.36420482  0.10032393    -0.14800
C328        C  0.48889566  0.36159866  0.10971004     0.07300
C329        C  0.48201461  0.35991020  0.14158437    -0.14800
C330        C  0.00722523  0.35999188  0.16349241    -0.14800
C331        C  0.03993847  0.36102272  0.15404282     0.07300
C332        C  0.04683081  0.36355556  0.12221611    -0.14800
H333        H  0.02780245  0.36522581  0.07593666     0.11300
H334        H  0.45714989  0.35770433  0.14959185     0.11300
H335        H  0.50109207  0.35762597  0.18784551     0.11300
H336        H  0.07174328  0.36433842  0.11420524     0.11300
C337        C  0.35012008  0.24337625  0.13475682    -0.14800
C338        C  0.38175843  0.24038681  0.12271782     0.07300
C339        C  0.40627637  0.22230380  0.14084116    -0.14800
C340        C  0.39976794  0.21038965  0.17145215    -0.14800
C341        C  0.36857760  0.21574914  0.18410510     0.07300
C342        C  0.34347809  0.23067037  0.16510452    -0.14800
H343        H  0.33084673  0.25733326  0.12108339     0.11300
H344        H  0.43084985  0.22003297  0.13208081     0.11300
H345        H  0.41931503  0.19807164  0.18551149     0.11300
H346        H  0.31928597  0.23515768  0.17435326     0.11300
C347        C  0.43525797  0.27271680  0.41541597    -0.14800
C348        C  0.41064390  0.28933167  0.43409391     0.07300
C349        C  0.37959092  0.29587234  0.42129072    -0.14800
C350        C  0.37262769  0.28330174  0.39083709    -0.14800
C351        C  0.39653440  0.26334469  0.37311784     0.07300
C352        C  0.42813418  0.25933301  0.38526393    -0.14800
H353        H  0.45930097  0.26725148  0.42485401     0.11300
H354        H  0.36042080  0.30930584  0.43523721     0.11300
H355        H  0.34811029  0.28647073  0.38195909     0.11300
H356        H  0.44695325  0.24402581  0.37186409     0.11300
C357        C  0.01913215  0.64275636  0.41230134    -0.14800
C358        C  0.48634025  0.64432188  0.40288408     0.07300
C359        C  0.47931654  0.64473887  0.37096069    -0.14800
C360        C  0.00443347  0.64404284  0.34904478    -0.14800
C361        C  0.03723377  0.64366642  0.35848558     0.07300
C362        C  0.04425411  0.64280153  0.39039567    -0.14800
H363        H  0.02546724  0.64283661  0.43670593     0.11300
H364        H  0.45439771  0.64618444  0.36290130     0.11300
H365        H  0.49815460  0.64523556  0.32464492     0.11300
H366        H  0.06920367  0.64271205  0.39845737     0.11300
C367        C  0.99891380  0.80918476  0.02100038    -0.14800
C368        C  0.49756526  0.78348552  0.49432800     0.07300
C369        C  0.02555763  0.77858612  0.47633681    -0.14800
C370        C  0.05511545  0.79482349  0.48664805    -0.14800
C371        C  0.05735067  0.81633374  0.01503683     0.07300
C372        C  0.02884370  0.82539700  0.03145584    -0.14800
H373        H  0.47761573  0.81301675  0.03541892     0.11300
H374        H  0.02515476  0.75897817  0.45571741     0.11300
H375        H  0.07683614  0.78651490  0.47409699     0.11300
H376        H  0.03015631  0.84103577  0.05378669     0.11300
C377        C  0.30478396  0.71051093  0.02412506    -0.14800
C378        C  0.30704907  0.68838523  0.49601094     0.07300
C379        C  0.27842796  0.67847887  0.47967734    -0.14800
C380        C  0.24836204  0.69413702  0.49003211    -0.14800
C381        C  0.24691723  0.72009100  0.01657835     0.07300
C382        C  0.27511075  0.72601527  0.03438044    -0.14800
H383        H  0.32652699  0.71946428  0.03667473     0.11300
H384        H  0.27969329  0.66235025  0.45754758     0.11300
H385        H  0.22697736  0.68950793  0.47569579     0.11300
H386        H  0.27472527  0.74583534  0.05488469     0.11300
C387        C  0.41467348  0.53288933  0.02895581    -0.14800
C388        C  0.41532495  0.54513471  0.99771989     0.07300
C389        C  0.41640098  0.51380701  0.47457653    -0.14800
C390        C  0.41739472  0.47109461  0.48254286    -0.14800
C391        C  0.41663208  0.45885321  0.01379915     0.07300
C392        C  0.41497287  0.49020262  0.03689655    -0.14800
H393        H  0.41386972  0.55632552  0.04724198     0.11300
H394        H  0.41722538  0.52237521  0.45028316     0.11300
H395        H  0.41870305  0.44767338  0.46427885     0.11300
H396        H  0.41456427  0.48175869  0.06122352     0.11300
C397        C  0.40407908  0.78364031  0.37260553    -0.14800
C398        C  0.37943044  0.76573907  0.39070506     0.07300
C399        C  0.34769889  0.76319571  0.37861053    -0.14800
C400        C  0.34106894  0.77591401  0.34822348    -0.14800
C401        C  0.36626663  0.79036663  0.32917454     0.07300
C402        C  0.39757055  0.79555839  0.34192994    -0.14800
H403        H  0.42873385  0.78558801  0.38137934     0.11300
H404        H  0.32832607  0.74937199  0.39223462     0.11300
H405        H  0.31679286  0.77155043  0.33893673     0.11300
H406        H  0.41723379  0.80748457  0.32783552     0.11300
C407        C  0.37684190  0.70625935  0.09202633    -0.14800
C408        C  0.40785044  0.71274703  0.07917931     0.07300
C409        C  0.43284588  0.72862919  0.09805393    -0.14800
C410        C  0.42615970  0.74144306  0.12839561    -0.14800
C411        C  0.39459953  0.73762257  0.14056763     0.07300
C412        C  0.37030208  0.71828200  0.12265111    -0.14800
H413        H  0.35736974  0.69332535  0.07799805     0.11300
H414        H  0.45688934  0.73402596  0.08865411     0.11300
H415        H  0.44528369  0.75633280  0.14190007     0.11300
H416        H  0.34579699  0.71530771  0.13150117     0.11300
O417        O  0.46636438  0.64052361  0.95463184    -0.86800
O418        O  0.47536003  0.71802165  0.97968005    -0.83900
C419        C  0.46979402  0.75485699  0.98896304     0.96600
O420        O  0.44128403  0.76565662  0.99598627    -0.83900
O421        O  0.40463326  0.75910827  0.94074826    -0.86600
C422        C  0.38720851  0.74301458  0.91954051     1.01100
O423        O  0.37526975  0.70654652  0.92287742    -0.79300
O424        O  0.43184262  0.66010650  0.91838777    -0.79500
C425        C  0.46004788  0.64834127  0.92637730     1.01100
O426        O  0.42699700  0.61739444  0.50785238    -0.86800
O427        O  0.43949488  0.69460279  0.53483626    -0.83900
C428        C  0.41286244  0.70847567  0.54545544     0.96600
O429        O  0.39088772  0.72134464  0.52746678    -0.83900
O430        O  0.35242342  0.72322791  0.97634887    -0.86500
C431        C  0.33910710  0.68782673  0.98087139     1.01100
O432        O  0.35357369  0.65423402  0.97310633    -0.79400
O433        O  0.40719716  0.60117852  0.96229123    -0.79500
C434        C  0.41610700  0.59024462  0.98912375     1.01100
Cr435      Cr  0.44929435  0.66902738  0.49293866     1.93700
Cr436      Cr  0.39865178  0.73871891  0.98421483     1.93200
Cr437      Cr  0.39337446  0.65758378  0.94630911     1.39100
O438        O  0.41393101  0.68834764  0.97463136    -1.24600
O439        O  0.46878788  0.36522709  0.55795615    -0.86800
O440        O  0.47849176  0.28769826  0.53356978    -0.83900
C441        C  0.47325936  0.25031851  0.52513725     0.96600
O442        O  0.44477444  0.23833479  0.51856424    -0.83900
O443        O  0.40760143  0.24616795  0.57313566    -0.86600
C444        C  0.38970560  0.26241942  0.59370714     1.01100
O445        O  0.37760228  0.29848378  0.58956433    -0.79300
O446        O  0.43441025  0.34518775  0.59414829    -0.79500
C447        C  0.46255980  0.35734920  0.58620178     1.01100
O448        O  0.42928821  0.38667190  0.50419380    -0.86800
O449        O  0.44240650  0.30919836  0.97814146    -0.83900
C450        C  0.41594909  0.29412808  0.96769201     0.96600
O451        O  0.39432098  0.28064261  0.98573493    -0.83900
O452        O  0.35572285  0.28042639  0.53621520    -0.86500
C453        C  0.34268121  0.31556800  0.53049172     1.01100
O454        O  0.35681749  0.34952251  0.53834779    -0.79400
O455        O  0.41009213  0.40316763  0.54970872    -0.79500
C456        C  0.41836616  0.41388174  0.52270336     1.01100
Cr457      Cr  0.45202542  0.33577100  0.51976110     1.93700
Cr458      Cr  0.40192960  0.26498886  0.52928814     1.93200
Cr459      Cr  0.39613511  0.34699111  0.56588013     1.39100
O460        O  0.41690055  0.31593580  0.53814657    -1.24600
O461        O  0.21819599  0.13925097  0.95488713    -0.86800
O462        O  0.22798708  0.21634502  0.98004513    -0.83900
C463        C  0.22302161  0.25355488  0.98880540     0.96600
O464        O  0.19467842  0.26521394  0.99569562    -0.83900
O465        O  0.15828093  0.25832446  0.94036029    -0.86600
C466        C  0.14044975  0.24244342  0.91939245     1.01100
O467        O  0.12787649  0.20637482  0.92306369    -0.79300
O468        O  0.18355346  0.15848881  0.91857564    -0.79500
C469        C  0.21172802  0.14660575  0.92655718     1.01100
O470        O  0.17850587  0.11671435  0.50828502    -0.86800
O471        O  0.19129988  0.19376425  0.53511458    -0.83900
C472        C  0.16476651  0.20848259  0.54540204     0.96600
O473        O  0.14343031  0.22234580  0.52716825    -0.83900
O474        O  0.10551232  0.22409332  0.97591873    -0.86500
C475        C  0.09208162  0.18915318  0.98175869     1.01100
O476        O  0.10582947  0.15508255  0.97399233    -0.79400
O477        O  0.15837785  0.10064855  0.96288467    -0.79500
C478        C  0.16717047  0.08966766  0.98973356     1.01100
Cr479      Cr  0.20130467  0.16796812  0.49327427     1.93700
Cr480      Cr  0.15178278  0.23885801  0.98390771     1.93200
Cr481      Cr  0.14529288  0.15722517  0.94673173     1.39100
O482        O  0.16635610  0.18793409  0.97475682    -1.24600
O483        O  0.21630772  0.86218320  0.55708760    -0.86800
O484        O  0.22466389  0.78512501  0.53144220    -0.83900
C485        C  0.21896085  0.74827862  0.52206860     0.96600
O486        O  0.19025706  0.73720699  0.51535994    -0.83900
O487        O  0.15368375  0.74375638  0.57072223    -0.86600
C488        C  0.13646157  0.75980459  0.59194022     1.01100
O489        O  0.12484934  0.79633669  0.58865259    -0.79300
O490        O  0.18207696  0.84193823  0.59332929    -0.79500
C491        C  0.21022550  0.85386240  0.58527644     1.01100
O492        O  0.17652526  0.88598231  0.50415475    -0.86800
O493        O  0.18840334  0.80915408  0.97678751    -0.83900
C494        C  0.16169631  0.79518362  0.96612573     0.96600
O495        O  0.13980505  0.78199664  0.98402772    -0.83900
O496        O  0.10184638  0.78057332  0.53514888    -0.86500
C497        C  0.08914881  0.81623153  0.53056017     1.01100
O498        O  0.10394122  0.84957152  0.53868558    -0.79400
O499        O  0.15803140  0.90190032  0.55006910    -0.79500
C500        C  0.16626661  0.91303965  0.52311957     1.01100
Cr501      Cr  0.19874750  0.83422580  0.51867242     1.93700
Cr502      Cr  0.14776900  0.76442137  0.52725499     1.93200
Cr503      Cr  0.14357278  0.84534469  0.56555157     1.39100
O504        O  0.16354856  0.81467848  0.53702876    -1.24600
O505        O  0.06046642  0.36400850  0.70563441    -0.86800
O506        O  0.05067618  0.28697006  0.73057902    -0.83900
C507        C  0.05568665  0.24991054  0.73954507     0.96600
O508        O  0.08415892  0.23800397  0.74585904    -0.83900
O509        O  0.12019046  0.24444639  0.69025516    -0.86600
C510        C  0.13782749  0.26030500  0.66925939     1.01100
O511        O  0.15027851  0.29644691  0.67294650    -0.79300
O512        O  0.09427739  0.34394906  0.66896923    -0.79500
C513        C  0.06638019  0.35631283  0.67728274     1.01100
O514        O  0.10105237  0.38606519  0.75861704    -0.86800
O515        O  0.08791063  0.30932517  0.78529461    -0.83900
C516        C  0.11440824  0.29448736  0.79555747     0.96600
O517        O  0.13571751  0.28071462  0.77730667    -0.83900
O518        O  0.17318788  0.27901407  0.72586207    -0.86500
C519        C  0.18660225  0.31415268  0.73132335     1.01100
O520        O  0.17265035  0.34806284  0.72362803    -0.79400
O521        O  0.11988146  0.40200096  0.71286708    -0.79500
C522        C  0.11163506  0.41306491  0.73981101     1.01100
Cr523      Cr  0.07770549  0.33514591  0.74369690     1.93700
Cr524      Cr  0.12700683  0.26412357  0.73392545     1.93200
Cr525      Cr  0.13292528  0.34552282  0.69670952     1.39100
O526        O  0.11232229  0.31495815  0.72489215    -1.24600
O527        O  0.05753399  0.63879488  0.80684813    -0.86800
O528        O  0.04800822  0.71549070  0.78142318    -0.83900
C529        C  0.05332744  0.75265256  0.77272533     0.96600
O530        O  0.08180158  0.76441491  0.76615460    -0.83900
O531        O  0.11843787  0.75813821  0.82128707    -0.86600
C532        C  0.13620610  0.74249815  0.84225820     1.01100
O533        O  0.14841388  0.70637007  0.83868006    -0.79300
O534        O  0.09181641  0.65948035  0.84322160    -0.79500
C535        C  0.06366112  0.64728135  0.83510940     1.01100
O536        O  0.09763519  0.61610250  0.75369412    -0.86800
O537        O  0.08451857  0.69272901  0.72657409    -0.83900
C538        C  0.11091251  0.70782586  0.71613402     0.96600
O539        O  0.13253577  0.72155225  0.73429263    -0.83900
O540        O  0.17067544  0.72312912  0.78554823    -0.86500
C541        C  0.18375681  0.68793857  0.78011292     1.01100
O542        O  0.16970446  0.65412086  0.78821266    -0.79400
O543        O  0.11649148  0.60068623  0.79960505    -0.79500
C544        C  0.10856612  0.58942665  0.77256246     1.01100
Cr545      Cr  0.07462283  0.66718315  0.76843692     1.93700
Cr546      Cr  0.12456022  0.73822145  0.77771661     1.93200
Cr547      Cr  0.13022836  0.65721096  0.81532782     1.39100
O548        O  0.10958633  0.68751528  0.78701479    -1.24600
O549        O  0.30887142  0.13872724  0.80658691    -0.86800
O550        O  0.30011132  0.21655137  0.78295137    -0.83900
C551        C  0.30555129  0.25377823  0.77454090     0.96600
O552        O  0.33408554  0.26553360  0.76826863    -0.83900
O553        O  0.37030474  0.25731139  0.82360086    -0.86600
C554        C  0.38803396  0.24093628  0.84429907     1.01100
O555        O  0.39983208  0.20464179  0.84029412    -0.79300
O556        O  0.34320296  0.15766344  0.84339745    -0.79500
C557        C  0.31501582  0.14595209  0.83501517     1.01100
O558        O  0.34880299  0.11756317  0.75311855    -0.86800
O559        O  0.33660649  0.19553080  0.72770711    -0.83900
C560        C  0.36320562  0.21052988  0.71768688     0.96600
O561        O  0.38483805  0.22344579  0.73615947    -0.83900
O562        O  0.42271267  0.22354515  0.78769247    -0.86500
C563        C  0.43594311  0.18854070  0.78200549     1.01100
O564        O  0.42161144  0.15443404  0.78898375    -0.79400
O565        O  0.36799972  0.10057366  0.79861847    -0.79500
C566        C  0.35925962  0.09009743  0.77160449     1.01100
Cr567      Cr  0.32634622  0.16849028  0.76892594     1.93700
Cr568      Cr  0.37663500  0.23880659  0.77975495     1.93200
Cr569      Cr  0.38180805  0.15641374  0.81573310     1.39100
O570        O  0.36143271  0.18782096  0.78796437    -1.24600
O571        O  0.30787127  0.86328179  0.70453438    -0.86800
O572        O  0.29793726  0.78666226  0.72980096    -0.83900
C573        C  0.30304206  0.74938514  0.73820127     0.96600
O574        O  0.33146100  0.73760619  0.74484187    -0.83900
O575        O  0.36844028  0.74447287  0.69002749    -0.86600
C576        C  0.38646960  0.76029799  0.66933787     1.01100
O577        O  0.39867492  0.79652337  0.67316990    -0.79300
O578        O  0.34212409  0.84282293  0.66837740    -0.79500
C579        C  0.31402387  0.85482607  0.67634726     1.01100
O580        O  0.34762937  0.88642522  0.75775401    -0.86800
O581        O  0.33459228  0.80966402  0.78491300    -0.83900
C582        C  0.36093220  0.79458705  0.79541800     0.96600
O583        O  0.38232300  0.78059683  0.77733404    -0.83900
O584        O  0.42058559  0.77951010  0.72647116    -0.86500
C585        C  0.43395884  0.81476556  0.73164360     1.01100
O586        O  0.41993310  0.84860847  0.72378230    -0.79400
O587        O  0.36669747  0.90203470  0.71204217    -0.79500
C588        C  0.35812727  0.91337027  0.73883475     1.01100
Cr589      Cr  0.32473503  0.83504214  0.74297644     1.93700
Cr590      Cr  0.37437964  0.76417246  0.73378258     1.93200
Cr591      Cr  0.38045268  0.84544795  0.69648043     1.39100
O592        O  0.35966989  0.81493214  0.72460025    -1.24600
C593        C  0.35816661  0.01406636  0.78605293    -0.14800
C594        C  0.35960671  0.04506056  0.76281503     0.07300
C595        C  0.36052767  0.03244961  0.73161454    -0.14800
C596        C  0.36058758  0.98958558  0.72388071    -0.14800
C597        C  0.35905720  0.95859605  0.74718068     0.07300
C598        C  0.35756831  0.97131470  0.77831357    -0.14800
H599        H  0.35695901  0.02290768  0.81030778     0.11300
H600        H  0.36146290  0.05567735  0.71326727     0.11300
H601        H  0.36135286  0.98069433  0.69961920     0.11300
H602        H  0.35614219  0.94820463  0.79671090     0.11300
C603        C  0.24602188  0.73009265  0.72656652    -0.14800
C604        C  0.27474571  0.72133961  0.74276197     0.07300
C605        C  0.27389265  0.69206342  0.76728875    -0.14800
C606        C  0.24397306  0.67602783  0.77780911    -0.14800
C607        C  0.21498034  0.68907018  0.76365101     0.07300
C608        C  0.21651336  0.71427781  0.73700185    -0.14800
H609        H  0.24596913  0.75230432  0.70750582     0.11300
H610        H  0.29578234  0.68497576  0.78023483     0.11300
H611        H  0.24328567  0.65717576  0.79870528     0.11300
H612        H  0.19452234  0.72540707  0.72605320     0.11300
C613        C  0.99688837  0.77328937  0.78474994    -0.14800
C614        C  0.02527695  0.78064183  0.76776491     0.07300
C615        C  0.02425519  0.80852094  0.74238437    -0.14800
C616        C  0.49438766  0.82485995  0.73213917    -0.14800
C617        C  0.46560531  0.81362455  0.74745089     0.07300
C618        C  0.46741778  0.78948444  0.77461057    -0.14800
H619        H  0.99698937  0.75197909  0.80436012     0.11300
H620        H  0.04586026  0.81428144  0.72872386     0.11300
H621        H  0.49342318  0.84254109  0.71070119     0.11300
H622        H  0.44551343  0.77940785  0.78623931     0.11300
C623        C  0.21954939  0.28961651  0.77496169    -0.14800
C624        C  0.21803560  0.31305835  0.74746301     0.07300
C625        C  0.24696325  0.32445354  0.73249624    -0.14800
C626        C  0.27677449  0.30886882  0.74343726    -0.14800
C627        C  0.27758535  0.28166879  0.76920823     0.07300
C628        C  0.24899456  0.27430184  0.78586868    -0.14800
H629        H  0.19755269  0.27948293  0.78637174     0.11300
H630        H  0.24621775  0.34166605  0.71084426     0.11300
H631        H  0.29854922  0.31454462  0.73000203     0.11300
H632        H  0.24896456  0.25346651  0.80575531     0.11300
C633        C  0.99646247  0.17890111  0.78136241    -0.14800
C634        C  0.46754591  0.19022449  0.76625734     0.07300
C635        C  0.46918963  0.21437159  0.73910407    -0.14800
C636        C  0.99869027  0.23003268  0.72851489    -0.14800
C637        C  0.02732871  0.22236978  0.74512399     0.07300
C638        C  0.02637310  0.19483890  0.77072470    -0.14800
H639        H  0.99565219  0.16128695  0.80283456     0.11300
H640        H  0.44722932  0.22466331  0.72769574     0.11300
H641        H  0.49869953  0.25116240  0.70879871     0.11300
H642        H  0.04815398  0.18894465  0.78416826     0.11300
C643        C  0.11283468  0.48915314  0.72503555    -0.14800
C644        C  0.11258268  0.45815147  0.74832937     0.07300
C645        C  0.11174528  0.47073067  0.77952374    -0.14800
C646        C  0.11114929  0.51347838  0.78727879    -0.14800
C647        C  0.11071389  0.54445745  0.76398501     0.07300
C648        C  0.11158127  0.53190646  0.73278355    -0.14800
H649        H  0.11319896  0.48032602  0.70075092     0.11300
H650        H  0.11146794  0.44753102  0.79790937     0.11300
H651        H  0.11028833  0.52227285  0.81155721     0.11300
H652        H  0.11130751  0.55511940  0.71440771     0.11300
C653        C  0.26937178  0.85840313  0.59915666    -0.14800
C654        C  0.23665607  0.85764778  0.60863324     0.07300
C655        C  0.22973671  0.85795363  0.64050773    -0.14800
C656        C  0.25493575  0.85863267  0.66239478    -0.14800
C657        C  0.28765291  0.85828889  0.65293254     0.07300
C658        C  0.29458084  0.85836227  0.62105220    -0.14800
H659        H  0.27553632  0.85770632  0.57475176     0.11300
H660        H  0.20483525  0.85715992  0.64854707     0.11300
H661        H  0.24875825  0.85805689  0.68679673     0.11300
H662        H  0.31948739  0.85784613  0.61302476     0.11300
C663        C  0.12601249  0.79741467  0.91904243    -0.14800
C664        C  0.15679262  0.79079529  0.93241992     0.07300
C665        C  0.18185464  0.77464284  0.91406901    -0.14800
C666        C  0.17543931  0.76156348  0.88373241    -0.14800
C667        C  0.14407824  0.76536885  0.87103917     0.07300
C668        C  0.11972977  0.78506688  0.88838546    -0.14800
H669        H  0.10656361  0.81077062  0.93261953     0.11300
H670        H  0.20573288  0.76921954  0.92389475     0.11300
H671        H  0.19460112  0.74647165  0.87064718     0.04900
H672        H  0.09538090  0.78812516  0.87906643     0.11300
C673        C  0.14707830  0.70703054  0.66948727    -0.14800
C674        C  0.11598806  0.71242987  0.68239914     0.07300
C675        C  0.09075936  0.72730868  0.66353130    -0.14800
C676        C  0.09716707  0.74003902  0.63312063    -0.14800
C677        C  0.12869516  0.73707913  0.62080156     0.07300
C678        C  0.15332923  0.71887597  0.63876129    -0.14800
H679        H  0.16678908  0.69497660  0.68349671     0.11300
H680        H  0.06666457  0.73192903  0.67297196     0.11300
H681        H  0.07781122  0.75415802  0.61964777     0.11300
H682        H  0.17784121  0.71666286  0.62984107     0.11300
C683        C  0.16735912  0.03225473  0.52977283    -0.14800
C684        C  0.16561837  0.04458118  0.49854565     0.07300
C685        C  0.16351492  0.01323001  0.47546340    -0.14800
C686        C  0.16370699  0.97050215  0.48337986    -0.14800
C687        C  0.16529618  0.95819121  0.51458670     0.07300
C688        C  0.16685901  0.98950736  0.53772430    -0.14800
H689        H  0.16908866  0.05565119  0.54804305     0.11300
H690        H  0.16240556  0.02171922  0.45116352     0.11300
H691        H  0.16250609  0.94707714  0.46509308     0.11300
H692        H  0.16840272  0.98092196  0.56198765     0.11300
C693        C  0.12774239  0.20758601  0.59140929    -0.14800
C694        C  0.15916416  0.21267341  0.57906630     0.07300
C695        C  0.18422136  0.22720746  0.59840495    -0.14800
C696        C  0.17739367  0.24002244  0.62870240    -0.14800
C697        C  0.14558383  0.23756995  0.64041623     0.07300
C698        C  0.12101233  0.21969273  0.62200605    -0.14800
H699        H  0.10817558  0.19560996  0.57705313     0.11300
H700        H  0.20855604  0.23155466  0.58941320     0.11300
H701        H  0.19670124  0.25385425  0.64256794     0.11300
H702        H  0.09629717  0.21784767  0.63048348     0.11300
C703        C  0.15732941  0.28380359  0.87280562    -0.14800
C704        C  0.13276233  0.26509443  0.89057100     0.07300
C705        C  0.10115947  0.26199966  0.87828254    -0.14800
C706        C  0.09461860  0.27481491  0.84796167    -0.14800
C707        C  0.11976888  0.29001418  0.82920638     0.07300
C708        C  0.15090517  0.29587642  0.84215734    -0.14800
H709        H  0.18186581  0.28630826  0.88180893     0.11300
H710        H  0.08183685  0.24767802  0.89169500     0.11300
H711        H  0.07047086  0.26998856  0.83848385     0.11300
H712        H  0.17047508  0.30849702  0.82826946     0.11300
C713        C  0.23070824  0.14196127  0.87101362    -0.14800
C714        C  0.23786528  0.14207801  0.90293487     0.07300
C715        C  0.27068746  0.14085152  0.91222517    -0.14800
C716        C  0.29571017  0.14094943  0.89024092    -0.14800
C717        C  0.28860037  0.14159478  0.85834848     0.07300
C718        C  0.25576012  0.14135969  0.84899609    -0.14800
H719        H  0.20574696  0.14306776  0.86304056     0.11300
H720        H  0.27713112  0.14131966  0.93660174     0.11300
H721        H  0.32067720  0.14128824  0.89825096     0.11300
H722        H  0.24939252  0.14226951  0.82460922     0.11300
C723        C  0.00197866  0.19314600  0.99561137    -0.14800
C724        C  0.50146829  0.22246740  0.52023252     0.07300
C725        C  0.03044517  0.23164634  0.53599953    -0.14800
C726        C  0.05981242  0.21630491  0.52501846    -0.14800
C727        C  0.06095396  0.19080284  0.99841551     0.07300
C728        C  0.03173983  0.17738123  0.98465917    -0.14800
H729        H  0.97990471  0.18577066  0.98294156     0.11300
H730        H  0.53078127  0.25391937  0.55509946     0.11300
H731        H  0.08194479  0.22792599  0.53557126     0.11300
H732        H  0.03210357  0.15835496  0.96377518     0.11300
C733        C  0.28242573  0.32728331  0.52835150    -0.14800
C734        C  0.31130923  0.31424605  0.51409043     0.07300
C735        C  0.30955496  0.28887583  0.48744211    -0.14800
C736        C  0.27995286  0.27290805  0.97710878    -0.14800
C737        C  0.25137017  0.28162894  0.99341733     0.07300
C738        C  0.25242102  0.31107420  0.51794497    -0.14800
H739        H  0.28329371  0.34628843  0.54924199     0.11300
H740        H  0.33148324  0.27778061  0.47640812     0.11300
H741        H  0.27984296  0.25063046  0.95801346     0.11300
H742        H  0.23064635  0.31820623  0.53095594     0.11300
C743        C  0.02160562  0.36420533  0.60032389    -0.14800
C744        C  0.48889572  0.36159859  0.60970991     0.07300
C745        C  0.48201464  0.35990958  0.64158421    -0.14800
C746        C  0.00722526  0.35999133  0.66349232    -0.14800
C747        C  0.03993848  0.36102283  0.65404277     0.07300
C748        C  0.04683084  0.36355619  0.62221609    -0.14800
H749        H  0.02780253  0.36522674  0.57593665     0.11300
H750        H  0.45714997  0.35770317  0.64959163     0.11300
H751        H  0.50109198  0.35762505  0.68784538     0.11300
H752        H  0.07174328  0.36433955  0.61420528     0.11300
C753        C  0.35012000  0.24337661  0.63475683    -0.14800
C754        C  0.38175831  0.24038672  0.62271780     0.07300
C755        C  0.40627610  0.22230341  0.64084116    -0.14800
C756        C  0.39976757  0.21038946  0.67145218    -0.14800
C757        C  0.36857731  0.21574949  0.68410515     0.07300
C758        C  0.34347791  0.23067098  0.66510456    -0.14800
H759        H  0.33084675  0.25733383  0.62108340     0.11300
H760        H  0.43084954  0.22003219  0.63208083     0.11300
H761        H  0.41931453  0.19807122  0.68551154     0.11300
H762        H  0.31928585  0.23515867  0.67435330     0.11300
C763        C  0.43525811  0.27271698  0.91541604    -0.14800
C764        C  0.41064405  0.28933187  0.93409399     0.07300
C765        C  0.37959109  0.29587261  0.92129080    -0.14800
C766        C  0.37262784  0.28330204  0.89083717    -0.14800
C767        C  0.39653451  0.26334492  0.87311791     0.07300
C768        C  0.42813430  0.25933322  0.88526398    -0.14800
H769        H  0.45930109  0.26725160  0.92485408     0.11300
H770        H  0.36042098  0.30930610  0.93523731     0.11300
H771        H  0.34811044  0.28647111  0.88195917     0.11300
H772        H  0.44695338  0.24402600  0.87186411     0.11300
C773        C  0.01913217  0.64275720  0.91230120    -0.14800
C774        C  0.48634034  0.64432233  0.90288402     0.07300
C775        C  0.47931660  0.64473892  0.87096062    -0.14800
C776        C  0.00443342  0.64404292  0.84904464    -0.14800
C777        C  0.03723374  0.64366681  0.85848543     0.07300
C778        C  0.04425412  0.64280229  0.89039552    -0.14800
H779        H  0.02546727  0.64283777  0.93670579     0.11300
H780        H  0.45439778  0.64618415  0.86290125     0.11300
H781        H  0.49815462  0.64523529  0.82464484     0.11300
H782        H  0.06920370  0.64271308  0.89845723     0.11300
C783        C  0.99891395  0.80918499  0.52099972    -0.14800
C784        C  0.49756501  0.78348585  0.99432837     0.07300
C785        C  0.02555725  0.77858705  0.97633692    -0.14800
C786        C  0.05511511  0.79482434  0.98664817    -0.14800
C787        C  0.05735088  0.81633355  0.51503646     0.07300
C788        C  0.02884381  0.82539734  0.53145518    -0.14800
H789        H  0.47761579  0.81301737  0.53541811     0.11300
H790        H  0.02515430  0.75897955  0.95571729     0.11300
H791        H  0.07683571  0.78651616  0.97409689     0.11300
H792        H  0.03015632  0.84103665  0.55378586     0.11300
C793        C  0.30478401  0.71051118  0.52412508    -0.14800
C794        C  0.30704898  0.68838497  0.99601092     0.07300
C795        C  0.27842782  0.67847861  0.97967737    -0.14800
C796        C  0.24836191  0.69413676  0.99003221    -0.14800
C797        C  0.24691731  0.72009123  0.51657828     0.07300
C798        C  0.27511079  0.72601551  0.53438043    -0.14800
H799        H  0.32652702  0.71946449  0.53667479     0.11300
H800        H  0.27969311  0.66234999  0.95754762     0.11300
H801        H  0.22697721  0.68950767  0.97569592     0.11300
H802        H  0.27472526  0.74583558  0.55488471     0.11300
C803        C  0.41467336  0.53288928  0.52895600    -0.14800
C804        C  0.41532480  0.54513472  0.49772009     0.07300
C805        C  0.41640112  0.51380696  0.97457635    -0.14800
C806        C  0.41739485  0.47109456  0.98254273    -0.14800
C807        C  0.41663199  0.45885318  0.51379926     0.07300
C808        C  0.41497277  0.49020254  0.53689669    -0.14800
H809        H  0.41386961  0.55632543  0.54724220     0.11300
H810        H  0.41722552  0.52237513  0.95028297     0.11300
H811        H  0.41870318  0.44767326  0.96427874     0.11300
H812        H  0.41456418  0.48175855  0.56122366     0.11300
C813        C  0.40407921  0.78364030  0.87260564    -0.14800
C814        C  0.37943053  0.76573915  0.89070516     0.07300
C815        C  0.34769899  0.76319573  0.87861060    -0.14800
C816        C  0.34106908  0.77591396  0.84822353    -0.14800
C817        C  0.36626678  0.79036664  0.82917463     0.07300
C818        C  0.39757069  0.79555838  0.84193004    -0.14800
H819        H  0.42873398  0.78558793  0.88137946     0.11300
H820        H  0.32832615  0.74937200  0.89223469     0.11300
H821        H  0.31679304  0.77155032  0.83893673     0.11300
H822        H  0.41723395  0.80748455  0.82783563     0.11300
C823        C  0.37684211  0.70625961  0.59202634    -0.14800
C824        C  0.40785064  0.71274735  0.57917929     0.07300
C825        C  0.43284611  0.72862948  0.59805390    -0.14800
C826        C  0.42615995  0.74144325  0.62839561    -0.14800
C827        C  0.39459977  0.73762272  0.64056767     0.07300
C828        C  0.37030229  0.71828223  0.62265112    -0.14800
H829        H  0.35736997  0.69332558  0.57799807     0.11300
H830        H  0.45688961  0.73402625  0.58865404     0.11300
H831        H  0.44528394  0.75633291  0.64190009     0.11300
H832        H  0.34579717  0.71530793  0.63150120     0.11300
O833        O  0.96636427  0.64052322  0.45463191    -0.86800
O834        O  0.97536011  0.71802132  0.47967992    -0.83900
C835        C  0.96979420  0.75485674  0.48896277     0.96600
O836        O  0.94128424  0.76565655  0.49598600    -0.83900
O837        O  0.90463334  0.75910816  0.44074807    -0.86600
C838        C  0.88720851  0.74301447  0.41954038     1.01100
O839        O  0.87526976  0.70654642  0.42287735    -0.79300
O840        O  0.93184263  0.66010633  0.41838782    -0.79500
C841        C  0.96004784  0.64834093  0.42637736     1.01100
O842        O  0.92699720  0.61739437  0.00785219    -0.86800
O843        O  0.93949476  0.69460265  0.03483628    -0.83900
C844        C  0.91286227  0.70847536  0.04545546     0.96600
O845        O  0.89088753  0.72134430  0.02746681    -0.83900
O846        O  0.85242352  0.72322807  0.47634883    -0.86500
C847        C  0.83910715  0.68782693  0.48087139     1.01100
O848        O  0.85357368  0.65423416  0.47310638    -0.79400
O849        O  0.90719710  0.60117852  0.46229139    -0.79500
C850        C  0.91610685  0.59024465  0.48912395     1.01100
Cr851      Cr  0.94929438  0.66902751  0.99293863     1.93700
Cr852      Cr  0.89865190  0.73871899  0.48421470     1.93200
Cr853      Cr  0.89337445  0.65758374  0.44630915     1.39100
O854        O  0.91393103  0.68834764  0.47463134    -1.24600
O855        O  0.96878774  0.36522720  0.05795630    -0.86800
O856        O  0.97849164  0.28769821  0.03357015    -0.83900
C857        C  0.97325928  0.25031850  0.02513750     0.96600
O858        O  0.94477438  0.23833485  0.01856433    -0.83900
O859        O  0.90760129  0.24616806  0.07313567    -0.86600
C860        C  0.88970551  0.26241954  0.09370718     1.01100
O861        O  0.87760215  0.29848389  0.08956439    -0.79300
O862        O  0.93441009  0.34518795  0.09414843    -0.79500
C863        C  0.96255965  0.35734935  0.08620193     1.01100
O864        O  0.92928827  0.38667182  0.00419382    -0.86800
O865        O  0.94240640  0.30919849  0.47814130    -0.83900
C866        C  0.91594903  0.29412804  0.46769190     0.96600
O867        O  0.89432099  0.28064246  0.48573484    -0.83900
O868        O  0.85572277  0.28042642  0.03621518    -0.86500
C869        C  0.84268110  0.31556802  0.03049170     1.01100
O870        O  0.85681733  0.34952254  0.03834783    -0.79400
O871        O  0.91009201  0.40316770  0.04970865    -0.79500
C872        C  0.91836619  0.41388173  0.02270330     1.01100
Cr873      Cr  0.95202541  0.33577096  0.01976128     1.93700
Cr874      Cr  0.90192952  0.26498894  0.02928816     1.93200
Cr875      Cr  0.89613497  0.34699121  0.06588018     1.39100
O876        O  0.91690045  0.31593586  0.03814665    -1.24600
O877        O  0.71819608  0.13925090  0.45488726    -0.86800
O878        O  0.72798722  0.21634478  0.48004547    -0.83900
C879        C  0.72302172  0.25355467  0.48880563     0.96600
O880        O  0.69467853  0.26521379  0.49569577    -0.83900
O881        O  0.65828111  0.25832445  0.44036043    -0.86600
C882        C  0.64044989  0.24244353  0.41939257     1.01100
O883        O  0.62787663  0.20637493  0.42306375    -0.79300
O884        O  0.68355367  0.15848899  0.41857573    -0.79500
C885        C  0.71172817  0.14660577  0.42655730     1.01100
O886        O  0.67850607  0.11671448  0.00828505    -0.86800
O887        O  0.69129998  0.19376462  0.03511439    -0.83900
C888        C  0.66476658  0.20848280  0.04540192     0.96600
O889        O  0.64343026  0.22234582  0.02716818    -0.83900
O890        O  0.60551245  0.22409329  0.47591880    -0.86500
C891        C  0.59208172  0.18915313  0.48175862     1.01100
O892        O  0.60582955  0.15508251  0.47399221    -0.79400
O893        O  0.65837796  0.10064857  0.46288455    -0.79500
C894        C  0.66717043  0.08966759  0.48973345     1.01100
Cr895      Cr  0.70130467  0.16796833  0.99327412     1.93700
Cr896      Cr  0.65178290  0.23885795  0.48390782     1.93200
Cr897      Cr  0.64529302  0.15722523  0.44673173     1.39100
O898        O  0.66635619  0.18793403  0.47475693    -1.24600
O899        O  0.71630769  0.86218308  0.05708774    -0.86800
O900        O  0.72466387  0.78512482  0.03144232    -0.83900
C901        C  0.71896080  0.74827844  0.02206868     0.96600
O902        O  0.69025700  0.73720687  0.01535999    -0.83900
O903        O  0.65368357  0.74375609  0.07072220    -0.86600
C904        C  0.63646143  0.75980430  0.09194023     1.01100
O905        O  0.62484933  0.79633649  0.08865271    -0.79300
O906        O  0.68207697  0.84193804  0.09332943    -0.79500
C907        C  0.71022548  0.85386231  0.08527657     1.01100
O908        O  0.67652531  0.88598224  0.00415496    -0.86800
O909        O  0.68840321  0.80915419  0.47678734    -0.83900
C910        C  0.66169622  0.79518353  0.46612560     0.96600
O911        O  0.63980504  0.78199636  0.48402763    -0.83900
O912        O  0.60184631  0.78057326  0.03514886    -0.86500
C913        C  0.58914873  0.81623152  0.03056035     1.01100
O914        O  0.60394120  0.84957144  0.03868580    -0.79400
O915        O  0.65803144  0.90190024  0.05006931    -0.79500
C916        C  0.66626671  0.91303961  0.02311979     1.01100
Cr917      Cr  0.69874750  0.83422567  0.01867258     1.93700
Cr918      Cr  0.64776894  0.76442129  0.02725502     1.93200
Cr919      Cr  0.64357279  0.84534455  0.06555173     1.39100
O920        O  0.66354854  0.81467835  0.03702890    -1.24600
O921        O  0.56046650  0.36400828  0.20563444    -0.86800
O922        O  0.55067630  0.28696979  0.23057897    -0.83900
C923        C  0.55568676  0.24991027  0.23954504     0.96600
O924        O  0.58415904  0.23800372  0.24585903    -0.83900
O925        O  0.62019073  0.24444609  0.19025518    -0.86600
C926        C  0.63782772  0.26030476  0.16925941     1.01100
O927        O  0.65027864  0.29644673  0.17294650    -0.79300
O928        O  0.59427742  0.34394879  0.16896925    -0.79500
C929        C  0.56638023  0.35631260  0.17728277     1.01100
O930        O  0.60105241  0.38606492  0.25861708    -0.86800
O931        O  0.58791063  0.30932487  0.28529463    -0.83900
C932        C  0.61440825  0.29448714  0.29555753     0.96600
O933        O  0.63571756  0.28071447  0.27730674    -0.83900
O934        O  0.67318804  0.27901387  0.22586218    -0.86500
C935        C  0.68660244  0.31415253  0.23132327     1.01100
O936        O  0.67265048  0.34806265  0.22362796    -0.79400
O937        O  0.61988150  0.40200072  0.21286712    -0.79500
C938        C  0.61163510  0.41306464  0.23981105     1.01100
Cr939      Cr  0.57770556  0.33514563  0.24369690     1.93700
Cr940      Cr  0.62700697  0.26412336  0.23392549     1.93200
Cr941      Cr  0.63292535  0.34552259  0.19670951     1.39100
O942        O  0.61232240  0.31495791  0.22489216    -1.24600
O943        O  0.55753395  0.63879454  0.30684827    -0.86800
O944        O  0.54800807  0.71549030  0.28142321    -0.83900
C945        C  0.55332725  0.75265210  0.27272521     0.96600
O946        O  0.58180136  0.76441443  0.26615438    -0.83900
O947        O  0.61843767  0.75813811  0.32128688    -0.86600
C948        C  0.63620592  0.74249818  0.34225807     1.01100
O949        O  0.64841371  0.70637007  0.33868002    -0.79300
O950        O  0.59181639  0.65948006  0.34322171    -0.79500
C951        C  0.56366110  0.64728101  0.33510954     1.01100
O952        O  0.59763514  0.61610212  0.25369427    -0.86800
O953        O  0.58451839  0.69272847  0.22657408    -0.83900
C954        C  0.61091233  0.70782526  0.21613396     0.96600
O955        O  0.63253561  0.72155168  0.23429254    -0.83900
O956        O  0.67067527  0.72312900  0.28554817    -0.86500
C957        C  0.68375669  0.68793849  0.28011284     1.01100
O958        O  0.66970439  0.65412076  0.28821261    -0.79400
O959        O  0.61649154  0.60068598  0.29960519    -0.79500
C960        C  0.60856616  0.58942633  0.27256261     1.01100
Cr961      Cr  0.57462272  0.66718274  0.26843700     1.93700
Cr962      Cr  0.62456003  0.73822114  0.27771648     1.93200
Cr963      Cr  0.63022831  0.65721079  0.31532786     1.39100
O964        O  0.60958621  0.68751499  0.28701481    -1.24600
O965        O  0.80887144  0.13872708  0.30658692    -0.86800
O966        O  0.80011154  0.21655122  0.28295121    -0.83900
C967        C  0.80555159  0.25377799  0.27454058     0.96600
O968        O  0.83408587  0.26553323  0.26826832    -0.83900
O969        O  0.87030485  0.25731115  0.32360072    -0.86600
C970        C  0.88803396  0.24093604  0.34429902     1.01100
O971        O  0.89983204  0.20464151  0.34029418    -0.79300
O972        O  0.84320302  0.15766309  0.34339748    -0.79500
C973        C  0.81501588  0.14595179  0.33501520     1.01100
O974        O  0.84880310  0.11756279  0.25311864    -0.86800
O975        O  0.83660679  0.19553037  0.22770706    -0.83900
C976        C  0.86320596  0.21052937  0.21768685     0.96600
O977        O  0.88483842  0.22344517  0.23615947    -0.83900
O978        O  0.92271285  0.22354476  0.28769263    -0.86500
C979        C  0.93594329  0.18854032  0.28200562     1.01100
O980        O  0.92161160  0.15443368  0.28898389    -0.79400
O981        O  0.86799986  0.10057335  0.29861857    -0.79500
C982        C  0.85925977  0.09009710  0.27160459     1.01100
Cr983      Cr  0.82634637  0.16848998  0.26892591     1.93700
Cr984      Cr  0.87663524  0.23880618  0.27975488     1.93200
Cr985      Cr  0.88180813  0.15641342  0.31573316     1.39100
O986        O  0.86143286  0.18782061  0.28796437    -1.24600
O987        O  0.80787131  0.86328204  0.20453437    -0.86800
O988        O  0.79793709  0.78666244  0.22980084    -0.83900
C989        C  0.80304186  0.74938531  0.23820116     0.96600
O990        O  0.83146079  0.73760633  0.24484175    -0.83900
O991        O  0.86844008  0.74447285  0.19002741    -0.86600
C992        C  0.88646940  0.76029793  0.16933778     1.01100
O993        O  0.89867476  0.79652330  0.17316978    -0.79300
O994        O  0.84212402  0.84282302  0.16837733    -0.79500
C995        C  0.81402387  0.85482632  0.17634723     1.01100
O996        O  0.84762948  0.88642507  0.25775399    -0.86800
O997        O  0.83459212  0.80966395  0.28491291    -0.83900
C998        C  0.86093203  0.79458702  0.29541791     0.96600
O999        O  0.88232284  0.78059685  0.27733395    -0.83900
O1000       O  0.92058542  0.77951000  0.22647104    -0.86500
C1001       C  0.93395873  0.81476542  0.23164346     1.01100
O1002       O  0.91993303  0.84860837  0.22378218    -0.79400
O1003       O  0.86669743  0.90203462  0.21204211    -0.79500
C1004       C  0.85812736  0.91337013  0.23883473     1.01100
Cr1005     Cr  0.82473497  0.83504220  0.24297637     1.93700
Cr1006     Cr  0.87437947  0.76417246  0.23378247     1.93200
Cr1007     Cr  0.88045260  0.84544792  0.19648032     1.39100
O1008       O  0.85966978  0.81493214  0.22460014    -1.24600
C1009       C  0.85816711  0.01406604  0.28605303    -0.14800
C1010       C  0.85960694  0.04506027  0.26281513     0.07300
C1011       C  0.86052768  0.03244938  0.23161462    -0.14800
C1012       C  0.86058756  0.98958539  0.22388076    -0.14800
C1013       C  0.85905739  0.95859584  0.24718072     0.07300
C1014       C  0.85756879  0.97131441  0.27831363    -0.14800
H1015       H  0.85695975  0.02290732  0.31030788     0.11300
H1016       H  0.86146275  0.05567716  0.21326734     0.11300
H1017       H  0.86135264  0.98069418  0.19961926     0.11300
H1018       H  0.85614286  0.94820429  0.29671096     0.11300
C1019       C  0.74602167  0.73009275  0.22656642    -0.14800
C1020       C  0.77474551  0.72133980  0.24276188     0.07300
C1021       C  0.77389249  0.69206362  0.26728866    -0.14800
C1022       C  0.74397294  0.67602796  0.27780904    -0.14800
C1023       C  0.71498020  0.68907018  0.26365091     0.07300
C1024       C  0.71651317  0.71427780  0.23700172    -0.14800
H1025       H  0.74596892  0.75230440  0.20750573     0.11300
H1026       H  0.79578218  0.68497602  0.28023473     0.11300
H1027       H  0.74328560  0.65717594  0.29870524     0.11300
H1028       H  0.69452210  0.72540697  0.22605302     0.11300
C1029       C  0.49688816  0.77328894  0.28474975    -0.14800
C1030       C  0.52527675  0.78064135  0.26776473     0.07300
C1031       C  0.52425504  0.80852050  0.24238419    -0.14800
C1032       C  0.99438758  0.82485960  0.23213897    -0.14800
C1033       C  0.96560521  0.81362433  0.24745072     0.07300
C1034       C  0.96741766  0.78948419  0.27461040    -0.14800
H1035       H  0.49698910  0.75197865  0.30435993     0.11300
H1036       H  0.54586016  0.81428096  0.22872369     0.11300
H1037       H  0.99342314  0.84254079  0.21070096     0.11300
H1038       H  0.94551328  0.77940768  0.28623916     0.11300
C1039       C  0.71954985  0.28961695  0.27496160    -0.14800
C1040       C  0.71803593  0.31305831  0.24746270     0.07300
C1041       C  0.74696350  0.32445290  0.23249554    -0.14800
C1042       C  0.77677477  0.30886812  0.24343649    -0.14800
C1043       C  0.77758572  0.28166862  0.26920777     0.07300
C1044       C  0.74899504  0.27430223  0.28586851    -0.14800
H1045       H  0.69755317  0.27948374  0.28637192     0.11300
H1046       H  0.74621790  0.34166499  0.21084334     0.11300
H1047       H  0.79854942  0.31454345  0.23000104     0.11300
H1048       H  0.74896512  0.25346730  0.30575535     0.11300
C1049       C  0.49646270  0.17890069  0.28136243    -0.14800
C1050       C  0.96754606  0.19022412  0.26625740     0.07300
C1051       C  0.96918972  0.21437139  0.23910420    -0.14800
C1052       C  0.49869034  0.23003255  0.22851504    -0.14800
C1053       C  0.52732883  0.22236952  0.24512399     0.07300
C1054       C  0.52637330  0.19483850  0.27072463    -0.14800
H1055       H  0.49565249  0.16128640  0.30283455     0.11300
H1056       H  0.94722935  0.22466321  0.22769591     0.11300
H1057       H  0.99869955  0.25116236  0.20879894     0.11300
H1058       H  0.54815425  0.18894414  0.28416807     0.11300
C1059       C  0.61283456  0.48915288  0.22503565    -0.14800
C1060       C  0.61258275  0.45815118  0.24832944     0.07300
C1061       C  0.61174559  0.47073034  0.27952383    -0.14800
C1062       C  0.61114965  0.51347804  0.28727892    -0.14800
C1063       C  0.61071404  0.54445714  0.26398516     0.07300
C1064       C  0.61158123  0.53190618  0.23278368    -0.14800
H1065       H  0.61319864  0.48032577  0.20075100     0.11300
H1066       H  0.61146838  0.44753067  0.29790942     0.11300
H1067       H  0.61028884  0.52227248  0.31155734     0.11300
H1068       H  0.61130733  0.55511914  0.21440786     0.11300
C1069       C  0.76937172  0.85840346  0.09915670    -0.14800
C1070       C  0.73665604  0.85764788  0.10863333     0.07300
C1071       C  0.72973670  0.85795368  0.14050783    -0.14800
C1072       C  0.75493576  0.85863283  0.16239485    -0.14800
C1073       C  0.78765289  0.85828923  0.15293257     0.07300
C1074       C  0.79458078  0.85836273  0.12105222    -0.14800
H1075       H  0.77553626  0.85770672  0.07475177     0.11300
H1076       H  0.70483527  0.85715980  0.14854718     0.11300
H1077       H  0.74875829  0.85805693  0.18679681     0.11300
H1078       H  0.81948729  0.85784673  0.11302479     0.11300
C1079       C  0.62601230  0.79741454  0.41904234    -0.14800
C1080       C  0.65679248  0.79079528  0.43241978     0.07300
C1081       C  0.68185455  0.77464316  0.41406876    -0.14800
C1082       C  0.67543919  0.76156392  0.38373214    -0.14800
C1083       C  0.64407806  0.76536903  0.37103898     0.07300
C1084       C  0.61972954  0.78506682  0.38838536    -0.14800
H1085       H  0.60656342  0.81077030  0.43261950     0.11300
H1086       H  0.70573289  0.76922000  0.42389445     0.11300
H1087       H  0.69460101  0.74647234  0.37064683     0.04900
H1088       H  0.59538059  0.78812494  0.37906639     0.11300
C1089       C  0.64707807  0.70702992  0.16948718    -0.14800
C1090       C  0.61598784  0.71242927  0.18239907     0.07300
C1091       C  0.59075916  0.72730819  0.16353125    -0.14800
C1092       C  0.59716688  0.74003861  0.13312060    -0.14800
C1093       C  0.62869497  0.73707873  0.12080152     0.07300
C1094       C  0.65332902  0.71887546  0.13876122    -0.14800
H1095       H  0.66678885  0.69497592  0.18349661     0.11300
H1096       H  0.56666439  0.73192856  0.17297192     0.11300
H1097       H  0.57781105  0.75415769  0.11964777     0.11300
H1098       H  0.67784101  0.71666236  0.12984100     0.11300
C1099       C  0.66735963  0.03225477  0.02977297    -0.14800
C1100       C  0.66561866  0.04458121  0.99854579     0.07300
C1101       C  0.66351501  0.01323000  0.97546358    -0.14800
C1102       C  0.66370704  0.97050214  0.98338011    -0.14800
C1103       C  0.66529640  0.95819121  0.01458694     0.07300
C1104       C  0.66685947  0.98950739  0.03772448    -0.14800
H1105       H  0.66908933  0.05565122  0.04804318     0.11300
H1106       H  0.66240547  0.02171914  0.95116367     0.11300
H1107       H  0.66250596  0.94707715  0.96509340     0.11300
H1108       H  0.66840334  0.98092202  0.06198780     0.11300
C1109       C  0.62774267  0.20758576  0.09140930    -0.14800
C1110       C  0.65916433  0.21267359  0.07906619     0.07300
C1111       C  0.68422151  0.22720791  0.09840474    -0.14800
C1112       C  0.67739387  0.24002268  0.12870226    -0.14800
C1113       C  0.64558410  0.23756979  0.14041621     0.07300
C1114       C  0.62101265  0.21969233  0.12200611    -0.14800
H1115       H  0.60817588  0.19560956  0.07705317     0.11300
H1116       H  0.70855609  0.23155545  0.08941290     0.11300
H1117       H  0.69670139  0.25385468  0.14256773     0.11300
H1118       H  0.59629752  0.21784697  0.13048362     0.11300
C1119       C  0.65732954  0.28380351  0.37280566    -0.14800
C1120       C  0.63276243  0.26509466  0.39057118     0.07300
C1121       C  0.60115950  0.26200018  0.37828284    -0.14800
C1122       C  0.59461859  0.27481526  0.34796192    -0.14800
C1123       C  0.61976892  0.29001412  0.32920647     0.07300
C1124       C  0.65090527  0.29587622  0.34215736    -0.14800
H1125       H  0.68186599  0.28630797  0.38180889     0.11300
H1126       H  0.58183686  0.24767881  0.39169541     0.11300
H1127       H  0.57047077  0.26998905  0.33848418     0.11300
H1128       H  0.67047522  0.30849660  0.32826939     0.11300
C1129       C  0.73070834  0.14196123  0.37101374    -0.14800
C1130       C  0.73786541  0.14207788  0.40293498     0.07300
C1131       C  0.77068758  0.14085116  0.41222525    -0.14800
C1132       C  0.79571027  0.14094897  0.39024097    -0.14800
C1133       C  0.78860045  0.14159446  0.35834853     0.07300
C1134       C  0.75576019  0.14135955  0.34899617    -0.14800
H1135       H  0.70574706  0.14306788  0.36304071     0.11300
H1136       H  0.77713126  0.14131922  0.43660183     0.11300
H1137       H  0.82067730  0.14128762  0.39825098     0.11300
H1138       H  0.74939255  0.14226946  0.32460930     0.11300
C1139       C  0.50197873  0.19314619  0.49561100    -0.14800
C1140       C  0.00146824  0.22246741  0.02023278     0.07300
C1141       C  0.53044520  0.23164653  0.03599970    -0.14800
C1142       C  0.55981244  0.21630510  0.02501859    -0.14800
C1143       C  0.56095400  0.19080276  0.49841535     0.07300
C1144       C  0.53173990  0.17738138  0.48465885    -0.14800
H1145       H  0.47990481  0.18577107  0.48294106     0.11300
H1146       H  0.03078130  0.25391969  0.05509954     0.11300
H1147       H  0.58194482  0.22792629  0.03557130     0.11300
H1148       H  0.53210367  0.15835528  0.46377479     0.11300
C1149       C  0.78242561  0.32728359  0.02835124    -0.14800
C1150       C  0.81130914  0.31424602  0.01409036     0.07300
C1151       C  0.80955491  0.28887561  0.98744213    -0.14800
C1152       C  0.77995287  0.27290813  0.47710882    -0.14800
C1153       C  0.75137025  0.28162877  0.49341753     0.07300
C1154       C  0.75242089  0.31107455  0.01794464    -0.14800
H1155       H  0.78329355  0.34628895  0.04924163     0.11300
H1156       H  0.83148320  0.27778022  0.97640824     0.11300
H1157       H  0.77984295  0.25063063  0.45801342     0.11300
H1158       H  0.73064619  0.31820682  0.03095545     0.11300
C1159       C  0.52160561  0.36420467  0.10032392    -0.14800
C1160       C  0.98889562  0.36159866  0.10971004     0.07300
C1161       C  0.98201457  0.35991008  0.14158436    -0.14800
C1162       C  0.50722527  0.35999195  0.16349240    -0.14800
C1163       C  0.53993851  0.36102271  0.15404280     0.07300
C1164       C  0.54683086  0.36355547  0.12221609    -0.14800
H1165       H  0.52780249  0.36522552  0.07593664     0.11300
H1166       H  0.95714987  0.35770407  0.14959184     0.11300
H1167       H  0.00109203  0.35762583  0.18784551     0.11300
H1168       H  0.57174332  0.36433826  0.11420523     0.11300
C1169       C  0.85012005  0.24337622  0.13475685    -0.14800
C1170       C  0.88175839  0.24038684  0.12271784     0.07300
C1171       C  0.90627635  0.22230388  0.14084118    -0.14800
C1172       C  0.89976795  0.21038970  0.17145216    -0.14800
C1173       C  0.86857762  0.21574915  0.18410512     0.07300
C1174       C  0.84347808  0.23067032  0.16510454    -0.14800
H1175       H  0.83084668  0.25733319  0.12108342     0.11300
H1176       H  0.93084979  0.22003309  0.13208084     0.11300
H1177       H  0.91931505  0.19807170  0.18551148     0.11300
H1178       H  0.81928597  0.23515757  0.17435329     0.11300
C1179       C  0.93525806  0.27271683  0.41541596    -0.14800
C1180       C  0.91064400  0.28933179  0.43409388     0.07300
C1181       C  0.87959104  0.29587255  0.42129067    -0.14800
C1182       C  0.87262779  0.28330190  0.39083706    -0.14800
C1183       C  0.89653446  0.26334474  0.37311784     0.07300
C1184       C  0.92813424  0.25933300  0.38526394    -0.14800
H1185       H  0.95930106  0.26725144  0.42485401     0.11300
H1186       H  0.86042094  0.30930613  0.43523716     0.11300
H1187       H  0.84811038  0.28647099  0.38195902     0.11300
H1188       H  0.94695326  0.24402574  0.37186412     0.11300
C1189       C  0.51913211  0.64275637  0.41230133    -0.14800
C1190       C  0.98634030  0.64432188  0.40288409     0.07300
C1191       C  0.97931659  0.64473887  0.37096069    -0.14800
C1192       C  0.50443342  0.64404284  0.34904477    -0.14800
C1193       C  0.53723372  0.64366642  0.35848557     0.07300
C1194       C  0.54425407  0.64280153  0.39039566    -0.14800
H1195       H  0.52546719  0.64283661  0.43670593     0.11300
H1196       H  0.95439776  0.64618443  0.36290131     0.11300
H1197       H  0.99815466  0.64523556  0.32464493     0.11300
H1198       H  0.56920365  0.64271205  0.39845737     0.11300
C1199       C  0.49891383  0.80918475  0.02100038    -0.14800
C1200       C  0.99756525  0.78348553  0.49432799     0.07300
C1201       C  0.52555763  0.77858613  0.47633680    -0.14800
C1202       C  0.55511546  0.79482349  0.48664803    -0.14800
C1203       C  0.55735071  0.81633370  0.01503682     0.07300
C1204       C  0.52884373  0.82539698  0.03145583    -0.14800
H1205       H  0.97761571  0.81301672  0.03541893     0.11300
H1206       H  0.52515475  0.75897820  0.45571739     0.11300
H1207       H  0.57683613  0.78651489  0.47409698     0.11300
H1208       H  0.53015634  0.84103576  0.05378667     0.11300
C1209       C  0.80478396  0.71051089  0.02412508    -0.14800
C1210       C  0.80704904  0.68838529  0.49601090     0.07300
C1211       C  0.77842790  0.67847889  0.47967733    -0.14800
C1212       C  0.74836198  0.69413705  0.49003212    -0.14800
C1213       C  0.74691723  0.72009099  0.01657831     0.07300
C1214       C  0.77511074  0.72601523  0.03438043    -0.14800
H1215       H  0.82652700  0.71946425  0.03667479     0.11300
H1216       H  0.77969321  0.66235023  0.45754760     0.11300
H1217       H  0.72697729  0.68950790  0.47569583     0.11300
H1218       H  0.77472523  0.74583527  0.05488467     0.11300
C1219       C  0.91467363  0.53288929  0.02895578    -0.14800
C1220       C  0.91532499  0.54513467  0.99771984     0.07300
C1221       C  0.91640111  0.51380703  0.47457654    -0.14800
C1222       C  0.91739487  0.47109464  0.48254288    -0.14800
C1223       C  0.91663212  0.45885317  0.01379914     0.07300
C1224       C  0.91497302  0.49020258  0.03689654    -0.14800
H1225       H  0.91386993  0.55632549  0.04724194     0.11300
H1226       H  0.91722558  0.52237523  0.45028318     0.11300
H1227       H  0.91870330  0.44767341  0.46427889     0.11300
H1228       H  0.91456451  0.48175864  0.06122356     0.11300
C1229       C  0.90407913  0.78364022  0.37260549    -0.14800
C1230       C  0.87943048  0.76573903  0.39070504     0.07300
C1231       C  0.84769891  0.76319569  0.37861054    -0.14800
C1232       C  0.84106894  0.77591401  0.34822350    -0.14800
C1233       C  0.86626662  0.79036664  0.32917455     0.07300
C1234       C  0.89757056  0.79555834  0.34192992    -0.14800
H1235       H  0.92873395  0.78558786  0.38137929     0.11300
H1236       H  0.82832610  0.74937199  0.39223465     0.11300
H1237       H  0.81679287  0.77155044  0.33893677     0.11300
H1238       H  0.91723379  0.80748449  0.32783547     0.11300
C1239       C  0.87684191  0.70625932  0.09202636    -0.14800
C1240       C  0.90785046  0.71274701  0.07917931     0.07300
C1241       C  0.93284592  0.72862917  0.09805390    -0.14800
C1242       C  0.92615975  0.74144306  0.12839557    -0.14800
C1243       C  0.89459958  0.73762257  0.14056763     0.07300
C1244       C  0.87030210  0.71828199  0.12265114    -0.14800
H1245       H  0.85736976  0.69332532  0.07799810     0.11300
H1246       H  0.95688941  0.73402593  0.08865405     0.11300
H1247       H  0.94528373  0.75633280  0.14190002     0.11300
H1248       H  0.84579697  0.71530769  0.13150123     0.11300
O1249       O  0.96636436  0.64052362  0.95463180    -0.86800
O1250       O  0.97536003  0.71802166  0.97968004    -0.83900
C1251       C  0.96979401  0.75485700  0.98896303     0.96600
O1252       O  0.94128402  0.76565661  0.99598629    -0.83900
O1253       O  0.90463327  0.75910831  0.94074828    -0.86600
C1254       C  0.88720850  0.74301465  0.91954053     1.01100
O1255       O  0.87526975  0.70654658  0.92287744    -0.79300
O1256       O  0.93184263  0.66010661  0.91838775    -0.79500
C1257       C  0.96004787  0.64834133  0.92637726     1.01100
O1258       O  0.92699699  0.61739446  0.50785240    -0.86800
O1259       O  0.93949483  0.69460283  0.53483627    -0.83900
C1260       C  0.91286238  0.70847569  0.54545544     0.96600
O1261       O  0.89088766  0.72134464  0.52746676    -0.83900
O1262       O  0.85242342  0.72322789  0.97634887    -0.86500
C1263       C  0.83910712  0.68782672  0.98087142     1.01100
O1264       O  0.85357371  0.65423401  0.97310635    -0.79400
O1265       O  0.90719721  0.60117853  0.96229118    -0.79500
C1266       C  0.91610703  0.59024460  0.98912371     1.01100
Cr1267     Cr  0.94929434  0.66902740  0.49293867     1.93700
Cr1268     Cr  0.89865178  0.73871891  0.98421484     1.93200
Cr1269     Cr  0.89337447  0.65758382  0.94630909     1.39100
O1270       O  0.91393101  0.68834765  0.97463136    -1.24600
O1271       O  0.96878785  0.36522709  0.55795619    -0.86800
O1272       O  0.97849175  0.28769827  0.53356978    -0.83900
C1273       C  0.97325935  0.25031852  0.52513723     0.96600
O1274       O  0.94477443  0.23833481  0.51856422    -0.83900
O1275       O  0.90760136  0.24616793  0.57313563    -0.86600
C1276       C  0.88970553  0.26241941  0.59370711     1.01100
O1277       O  0.87760222  0.29848377  0.58956431    -0.79300
O1278       O  0.93441022  0.34518774  0.59414833    -0.79500
C1279       C  0.96255976  0.35734919  0.58620182     1.01100
O1280       O  0.92928822  0.38667192  0.50419382    -0.86800
O1281       O  0.94240652  0.30919827  0.97814146    -0.83900
C1282       C  0.91594913  0.29412795  0.96769199     0.96600
O1283       O  0.89432099  0.28064249  0.98573489    -0.83900
O1284       O  0.85572284  0.28042642  0.53621515    -0.86500
C1285       C  0.84268119  0.31556804  0.53049170     1.01100
O1286       O  0.85681746  0.34952254  0.53834779    -0.79400
O1287       O  0.91009212  0.40316764  0.54970874    -0.79500
C1288       C  0.91836619  0.41388176  0.52270338     1.01100
Cr1289     Cr  0.95202541  0.33577102  0.51976113     1.93700
Cr1290     Cr  0.90192958  0.26498889  0.52928811     1.93200
Cr1291     Cr  0.89613508  0.34699111  0.56588014     1.39100
O1292       O  0.91690053  0.31593582  0.53814658    -1.24600
O1293       O  0.71819601  0.13925102  0.95488715    -0.86800
O1294       O  0.72798706  0.21634503  0.98004514    -0.83900
C1295       C  0.72302159  0.25355488  0.98880543     0.96600
O1296       O  0.69467842  0.26521392  0.99569570    -0.83900
O1297       O  0.65828094  0.25832445  0.94036033    -0.86600
C1298       C  0.64044974  0.24244340  0.91939249     1.01100
O1299       O  0.62787647  0.20637482  0.92306376    -0.79300
O1300       O  0.68355348  0.15848891  0.91857567    -0.79500
C1301       C  0.71172804  0.14660586  0.92655721     1.01100
O1302       O  0.67850592  0.11671435  0.50828504    -0.86800
O1303       O  0.69129990  0.19376429  0.53511457    -0.83900
C1304       C  0.66476654  0.20848265  0.54540205     0.96600
O1305       O  0.64343031  0.22234580  0.52716826    -0.83900
O1306       O  0.60551233  0.22409331  0.97591877    -0.86500
C1307       C  0.59208164  0.18915317  0.98175874     1.01100
O1308       O  0.60582948  0.15508254  0.97399236    -0.79400
O1309       O  0.65837790  0.10064857  0.96288466    -0.79500
C1310       C  0.66717051  0.08966765  0.98973354     1.01100
Cr1311     Cr  0.70130467  0.16796814  0.49327426     1.93700
Cr1312     Cr  0.65178279  0.23885800  0.98390775     1.93200
Cr1313     Cr  0.64529290  0.15722518  0.94673177     1.39100
O1314       O  0.66635611  0.18793408  0.97475687    -1.24600
O1315       O  0.71630771  0.86218317  0.55708760    -0.86800
O1316       O  0.72466384  0.78512505  0.53144216    -0.83900
C1317       C  0.71896082  0.74827864  0.52206859     0.96600
O1318       O  0.69025703  0.73720695  0.51535998    -0.83900
O1319       O  0.65368371  0.74375634  0.57072226    -0.86600
C1320       C  0.63646150  0.75980456  0.59194023     1.01100
O1321       O  0.62484931  0.79633667  0.58865260    -0.79300
O1322       O  0.68207696  0.84193819  0.59332930    -0.79500
C1323       C  0.71022551  0.85386238  0.58527644     1.01100
O1324       O  0.67652517  0.88598231  0.50415477    -0.86800
O1325       O  0.68840337  0.80915407  0.97678751    -0.83900
C1326       C  0.66169635  0.79518360  0.96612571     0.96600
O1327       O  0.63980508  0.78199662  0.98402770    -0.83900
O1328       O  0.60184636  0.78057326  0.53514887    -0.86500
C1329       C  0.58914881  0.81623148  0.53056016     1.01100
O1330       O  0.60394122  0.84957146  0.53868558    -0.79400
O1331       O  0.65803138  0.90190029  0.55006913    -0.79500
C1332       C  0.66626654  0.91303964  0.52311960     1.01100
Cr1333     Cr  0.69874745  0.83422581  0.51867241     1.93700
Cr1334     Cr  0.64776898  0.76442131  0.52725501     1.93200
Cr1335     Cr  0.64357277  0.84534465  0.56555158     1.39100
O1336       O  0.66354853  0.81467844  0.53702877    -1.24600
O1337       O  0.56046636  0.36400850  0.70563443    -0.86800
O1338       O  0.55067615  0.28697005  0.73057902    -0.83900
C1339       C  0.55568663  0.24991053  0.73954508     0.96600
O1340       O  0.58415890  0.23800398  0.74585905    -0.83900
O1341       O  0.62019042  0.24444640  0.69025515    -0.86600
C1342       C  0.63782746  0.26030503  0.66925939     1.01100
O1343       O  0.65027845  0.29644695  0.67294651    -0.79300
O1344       O  0.59427734  0.34394906  0.66896926    -0.79500
C1345       C  0.56638015  0.35631285  0.67728276     1.01100
O1346       O  0.60105230  0.38606519  0.75861705    -0.86800
O1347       O  0.58791059  0.30932515  0.78529461    -0.83900
C1348       C  0.61440820  0.29448732  0.79555747     0.96600
O1349       O  0.63571748  0.28071463  0.77730666    -0.83900
O1350       O  0.67318784  0.27901407  0.72586206    -0.86500
C1351       C  0.68660220  0.31415268  0.73132337     1.01100
O1352       O  0.67265029  0.34806284  0.72362805    -0.79400
O1353       O  0.61988138  0.40200097  0.71286709    -0.79500
C1354       C  0.61163498  0.41306491  0.73981101     1.01100
Cr1355     Cr  0.57770544  0.33514590  0.74369691     1.93700
Cr1356     Cr  0.62700680  0.26412358  0.73392544     1.93200
Cr1357     Cr  0.63292522  0.34552283  0.69670953     1.39100
O1358       O  0.61232224  0.31495815  0.72489215    -1.24600
O1359       O  0.55753401  0.63879487  0.80684817    -0.86800
O1360       O  0.54800823  0.71549071  0.78142324    -0.83900
C1361       C  0.55332744  0.75265257  0.77272540     0.96600
O1362       O  0.58180157  0.76441491  0.76615463    -0.83900
O1363       O  0.61843789  0.75813821  0.82128709    -0.86600
C1364       C  0.63620614  0.74249816  0.84225821     1.01100
O1365       O  0.64841390  0.70637006  0.83868007    -0.79300
O1366       O  0.59181642  0.65948036  0.84322164    -0.79500
C1367       C  0.56366114  0.64728134  0.83510944     1.01100
O1368       O  0.59763525  0.61610252  0.75369413    -0.86800
O1369       O  0.58451856  0.69272903  0.72657412    -0.83900
C1370       C  0.61091251  0.70782587  0.71613404     0.96600
O1371       O  0.63253578  0.72155225  0.73429264    -0.83900
O1372       O  0.67067545  0.72312912  0.78554827    -0.86500
C1373       C  0.68375681  0.68793856  0.78011293     1.01100
O1374       O  0.66970444  0.65412085  0.78821264    -0.79400
O1375       O  0.61649145  0.60068622  0.79960508    -0.79500
C1376       C  0.60856615  0.58942665  0.77256247     1.01100
Cr1377     Cr  0.57462285  0.66718316  0.76843695     1.93700
Cr1378     Cr  0.62456023  0.73822146  0.77771663     1.93200
Cr1379     Cr  0.63022836  0.65721095  0.81532784     1.39100
O1380       O  0.60958634  0.68751528  0.78701481    -1.24600
O1381       O  0.80887137  0.13872728  0.80658690    -0.86800
O1382       O  0.80011130  0.21655141  0.78295135    -0.83900
C1383       C  0.80555127  0.25377827  0.77454089     0.96600
O1384       O  0.83408552  0.26553364  0.76826863    -0.83900
O1385       O  0.87030476  0.25731145  0.82360082    -0.86600
C1386       C  0.88803398  0.24093633  0.84429904     1.01100
O1387       O  0.89983203  0.20464181  0.84029412    -0.79300
O1388       O  0.84320291  0.15766347  0.84339743    -0.79500
C1389       C  0.81501577  0.14595213  0.83501516     1.01100
O1390       O  0.84880293  0.11756318  0.75311855    -0.86800
O1391       O  0.83660647  0.19553081  0.72770710    -0.83900
C1392       C  0.86320560  0.21052989  0.71768687     0.96600
O1393       O  0.88483803  0.22344581  0.73615946    -0.83900
O1394       O  0.92271266  0.22354516  0.78769243    -0.86500
C1395       C  0.93594309  0.18854069  0.78200546     1.01100
O1396       O  0.92161141  0.15443405  0.78898376    -0.79400
O1397       O  0.86799968  0.10057369  0.79861847    -0.79500
C1398       C  0.85925958  0.09009744  0.77160449     1.01100
Cr1399     Cr  0.82634619  0.16849031  0.76892593     1.93700
Cr1400     Cr  0.87663499  0.23880661  0.77975494     1.93200
Cr1401     Cr  0.88180800  0.15641376  0.81573310     1.39100
O1402       O  0.86143268  0.18782097  0.78796436    -1.24600
O1403       O  0.80787128  0.86328184  0.70453443    -0.86800
O1404       O  0.79793726  0.78666227  0.72980097    -0.83900
C1405       C  0.80304206  0.74938515  0.73820128     0.96600
O1406       O  0.83146100  0.73760620  0.74484186    -0.83900
O1407       O  0.86844028  0.74447290  0.69002749    -0.86600
C1408       C  0.88646958  0.76029804  0.66933786     1.01100
O1409       O  0.89867492  0.79652341  0.67316991    -0.79300
O1410       O  0.84212408  0.84282299  0.66837742    -0.79500
C1411       C  0.81402387  0.85482614  0.67634730     1.01100
O1412       O  0.84762938  0.88642522  0.75775404    -0.86800
O1413       O  0.83459228  0.80966399  0.78491300    -0.83900
C1414       C  0.86093219  0.79458702  0.79541800     0.96600
O1415       O  0.88232299  0.78059681  0.77733405    -0.83900
O1416       O  0.92058558  0.77951011  0.72647116    -0.86500
C1417       C  0.93395882  0.81476558  0.73164360     1.01100
O1418       O  0.91993308  0.84860849  0.72378232    -0.79400
O1419       O  0.86669745  0.90203471  0.71204219    -0.79500
C1420       C  0.85812727  0.91337027  0.73883477     1.01100
Cr1421     Cr  0.82473504  0.83504215  0.74297646     1.93700
Cr1422     Cr  0.87437964  0.76417247  0.73378257     1.93200
Cr1423     Cr  0.88045267  0.84544798  0.69648044     1.39100
O1424       O  0.85966989  0.81493216  0.72460026    -1.24600
C1425       C  0.85816651  0.01406638  0.78605294    -0.14800
C1426       C  0.85960670  0.04506057  0.76281503     0.07300
C1427       C  0.86052778  0.03244961  0.73161455    -0.14800
C1428       C  0.86058769  0.98958558  0.72388073    -0.14800
C1429       C  0.85905721  0.95859605  0.74718071     0.07300
C1430       C  0.85756822  0.97131472  0.77831359    -0.14800
H1431       H  0.85695885  0.02290771  0.81030778     0.11300
H1432       H  0.86146312  0.05567737  0.71326726     0.11300
H1433       H  0.86135308  0.98069430  0.69961924     0.11300
H1434       H  0.85614203  0.94820465  0.79671092     0.11300
C1435       C  0.74602187  0.73009265  0.72656652    -0.14800
C1436       C  0.77474571  0.72133961  0.74276197     0.07300
C1437       C  0.77389264  0.69206341  0.76728875    -0.14800
C1438       C  0.74397305  0.67602783  0.77780912    -0.14800
C1439       C  0.71498033  0.68907018  0.76365101     0.07300
C1440       C  0.71651335  0.71427782  0.73700185    -0.14800
H1441       H  0.74596914  0.75230431  0.70750582     0.11300
H1442       H  0.79578233  0.68497575  0.78023482     0.11300
H1443       H  0.74328566  0.65717576  0.79870529     0.11300
H1444       H  0.69452230  0.72540708  0.72605318     0.11300
C1445       C  0.49688835  0.77328929  0.78474998    -0.14800
C1446       C  0.52527694  0.78064183  0.76776499     0.07300
C1447       C  0.52425521  0.80852101  0.74238448    -0.14800
C1448       C  0.99438765  0.82485996  0.73213911    -0.14800
C1449       C  0.96560530  0.81362458  0.74745086     0.07300
C1450       C  0.96741779  0.78948452  0.77461056    -0.14800
H1451       H  0.49698931  0.75197895  0.80436015     0.11300
H1452       H  0.54586034  0.81428159  0.72872401     0.11300
H1453       H  0.99342317  0.84254111  0.71070113     0.11300
H1454       H  0.94551342  0.77940794  0.78623934     0.11300
C1455       C  0.71954937  0.28961653  0.77496169    -0.14800
C1456       C  0.71803556  0.31305836  0.74746301     0.07300
C1457       C  0.74696319  0.32445354  0.73249624    -0.14800
C1458       C  0.77677444  0.30886882  0.74343724    -0.14800
C1459       C  0.77758532  0.28166881  0.76920822     0.07300
C1460       C  0.74899454  0.27430187  0.78586869    -0.14800
H1461       H  0.69755271  0.27948298  0.78637175     0.11300
H1462       H  0.74621768  0.34166604  0.71084425     0.11300
H1463       H  0.79854915  0.31454463  0.73000201     0.11300
H1464       H  0.74896453  0.25346655  0.80575533     0.11300
C1465       C  0.49646249  0.17890112  0.78136243    -0.14800
C1466       C  0.96754589  0.19022445  0.76625730     0.07300
C1467       C  0.96918963  0.21437154  0.73910402    -0.14800
C1468       C  0.49869027  0.23003268  0.72851491    -0.14800
C1469       C  0.52732871  0.22236977  0.74512399     0.07300
C1470       C  0.52637312  0.19483889  0.77072471    -0.14800
H1471       H  0.49565221  0.16128696  0.80283457     0.11300
H1472       H  0.94722932  0.22466322  0.72769565     0.11300
H1473       H  0.99869954  0.25116241  0.70879869     0.11300
H1474       H  0.54815401  0.18894462  0.78416826     0.11300
C1475       C  0.61283466  0.48915315  0.72503555    -0.14800
C1476       C  0.61258262  0.45815147  0.74832937     0.07300
C1477       C  0.61174523  0.47073067  0.77952374    -0.14800
C1478       C  0.61114927  0.51347838  0.78727879    -0.14800
C1479       C  0.61071393  0.54445746  0.76398501     0.07300
C1480       C  0.61158133  0.53190647  0.73278355    -0.14800
H1481       H  0.61319893  0.48032602  0.70075092     0.11300
H1482       H  0.61146785  0.44753102  0.79790936     0.11300
H1483       H  0.61028829  0.52227285  0.81155721     0.11300
H1484       H  0.61130764  0.55511941  0.71440772     0.11300
C1485       C  0.76937180  0.85840325  0.59915669    -0.14800
C1486       C  0.73665608  0.85764780  0.60863325     0.07300
C1487       C  0.72973671  0.85795362  0.64050773    -0.14800
C1488       C  0.75493575  0.85863269  0.66239478    -0.14800
C1489       C  0.78765292  0.85828901  0.65293257     0.07300
C1490       C  0.79458086  0.85836248  0.62105224    -0.14800
H1491       H  0.77553635  0.85770648  0.57475181     0.11300
H1492       H  0.70483525  0.85715984  0.64854708     0.11300
H1493       H  0.74875826  0.85805683  0.68679668     0.11300
H1494       H  0.81948743  0.85784643  0.61302480     0.11300
C1495       C  0.62601257  0.79741469  0.91904241    -0.14800
C1496       C  0.65679269  0.79079527  0.93241991     0.07300
C1497       C  0.68185472  0.77464281  0.91406901    -0.14800
C1498       C  0.67543937  0.76156347  0.88373241    -0.14800
C1499       C  0.64407830  0.76536887  0.87103916     0.07300
C1500       C  0.61972983  0.78506692  0.88838544    -0.14800
H1501       H  0.60656370  0.81077064  0.93261952     0.11300
H1502       H  0.70573300  0.76921947  0.92389477     0.11300
H1503       H  0.69460114  0.74647165  0.87064718     0.04900
H1504       H  0.59538093  0.78812522  0.87906640     0.11300
C1505       C  0.64707826  0.70703054  0.66948727    -0.14800
C1506       C  0.61598803  0.71242989  0.68239916     0.07300
C1507       C  0.59075931  0.72730868  0.66353133    -0.14800
C1508       C  0.59716699  0.74003901  0.63312066    -0.14800
C1509       C  0.62869508  0.73707912  0.62080157     0.07300
C1510       C  0.65332916  0.71887597  0.63876129    -0.14800
H1511       H  0.66678906  0.69497660  0.68349670     0.11300
H1512       H  0.56666454  0.73192901  0.67297201     0.11300
H1513       H  0.57781113  0.75415800  0.61964781     0.11300
H1514       H  0.67784114  0.71666286  0.62984105     0.11300
C1515       C  0.66735927  0.03225472  0.52977284    -0.14800
C1516       C  0.66561845  0.04458118  0.49854566     0.07300
C1517       C  0.66351484  0.01323001  0.47546342    -0.14800
C1518       C  0.66370679  0.97050215  0.48337991    -0.14800
C1519       C  0.66529610  0.95819121  0.51458674     0.07300
C1520       C  0.66685909  0.98950735  0.53772432    -0.14800
H1521       H  0.66908894  0.05565116  0.54804306     0.11300
H1522       H  0.66240539  0.02171920  0.45116354     0.11300
H1523       H  0.66250572  0.94707715  0.46509316     0.11300
H1524       H  0.66840289  0.98092194  0.56198767     0.11300
C1525       C  0.62774246  0.20758597  0.59140930    -0.14800
C1526       C  0.65916420  0.21267349  0.57906630     0.07300
C1527       C  0.68422137  0.22720765  0.59840494    -0.14800
C1528       C  0.67739366  0.24002261  0.62870239    -0.14800
C1529       C  0.64558385  0.23757000  0.64041623     0.07300
C1530       C  0.62101239  0.21969271  0.62200606    -0.14800
H1531       H  0.60817563  0.19560983  0.57705313     0.11300
H1532       H  0.70855601  0.23155496  0.58941319     0.11300
H1533       H  0.69670119  0.25385449  0.64256789     0.11300
H1534       H  0.59629728  0.21784759  0.63048348     0.11300
C1535       C  0.65732936  0.28380365  0.87280566    -0.14800
C1536       C  0.63276230  0.26509436  0.89057102     0.07300
C1537       C  0.60115947  0.26199944  0.87828251    -0.14800
C1538       C  0.59461860  0.27481467  0.84796164    -0.14800
C1539       C  0.61976884  0.29001409  0.82920638     0.07300
C1540       C  0.65090511  0.29587647  0.84215737    -0.14800
H1541       H  0.68186574  0.28630842  0.88180899     0.11300
H1542       H  0.58183687  0.24767769  0.89169494     0.11300
H1543       H  0.57047088  0.26998819  0.83848379     0.11300
H1544       H  0.67047501  0.30849716  0.82826950     0.11300
C1545       C  0.73070823  0.14196157  0.87101365    -0.14800
C1546       C  0.73786529  0.14207816  0.90293489     0.07300
C1547       C  0.77068746  0.14085156  0.91222518    -0.14800
C1548       C  0.79571015  0.14094942  0.89024091    -0.14800
C1549       C  0.78860034  0.14159486  0.85834847     0.07300
C1550       C  0.75576009  0.14135994  0.84899610    -0.14800
H1551       H  0.70574695  0.14306820  0.86304062     0.11300
H1552       H  0.77713113  0.14131962  0.93660175     0.11300
H1553       H  0.82067718  0.14128810  0.89825093     0.11300
H1554       H  0.74939246  0.14226985  0.82460924     0.11300
C1555       C  0.50197869  0.19314595  0.99561144    -0.14800
C1556       C  0.00146828  0.22246740  0.52023251     0.07300
C1557       C  0.53044517  0.23164633  0.53599953    -0.14800
C1558       C  0.55981242  0.21630488  0.52501847    -0.14800
C1559       C  0.56095398  0.19080282  0.99841556     0.07300
C1560       C  0.53173986  0.17738120  0.98465923    -0.14800
H1561       H  0.47990473  0.18577060  0.98294163     0.11300
H1562       H  0.03078126  0.25391938  0.55509948     0.11300
H1563       H  0.58194479  0.22792595  0.53557129     0.11300
H1564       H  0.53210359  0.15835494  0.96377525     0.11300
C1565       C  0.78242569  0.32728331  0.52835150    -0.14800
C1566       C  0.81130920  0.31424607  0.51409043     0.07300
C1567       C  0.80955494  0.28887585  0.48744210    -0.14800
C1568       C  0.77995283  0.27290802  0.97710878    -0.14800
C1569       C  0.75137016  0.28162893  0.99341734     0.07300
C1570       C  0.75242098  0.31107420  0.51794496    -0.14800
H1571       H  0.78329365  0.34628843  0.54924199     0.11300
H1572       H  0.83148322  0.27778067  0.47640810     0.11300
H1573       H  0.77984292  0.25063040  0.95801346     0.11300
H1574       H  0.73064631  0.31820623  0.53095592     0.11300
C1575       C  0.52160566  0.36420533  0.60032389    -0.14800
C1576       C  0.98889570  0.36159856  0.60970994     0.07300
C1577       C  0.98201464  0.35990947  0.64158425    -0.14800
C1578       C  0.50722523  0.35999148  0.66349230    -0.14800
C1579       C  0.53993846  0.36102291  0.65404277     0.07300
C1580       C  0.54683087  0.36355619  0.62221610    -0.14800
H1581       H  0.52780257  0.36522668  0.57593666     0.11300
H1582       H  0.95714999  0.35770302  0.64959167     0.11300
H1583       H  0.00109204  0.35762482  0.68784539     0.11300
H1584       H  0.57174335  0.36433950  0.61420529     0.11300
C1585       C  0.85011996  0.24337662  0.63475683    -0.14800
C1586       C  0.88175826  0.24038672  0.62271778     0.07300
C1587       C  0.90627606  0.22230341  0.64084114    -0.14800
C1588       C  0.89976754  0.21038945  0.67145216    -0.14800
C1589       C  0.86857728  0.21574949  0.68410514     0.07300
C1590       C  0.84347789  0.23067099  0.66510457    -0.14800
H1591       H  0.83084671  0.25733383  0.62108341     0.11300
H1592       H  0.93084950  0.22003219  0.63208079     0.11300
H1593       H  0.91931450  0.19807120  0.68551150     0.11300
H1594       H  0.81928582  0.23515871  0.67435333     0.11300
C1595       C  0.93525820  0.27271699  0.91541598    -0.14800
C1596       C  0.91064413  0.28933178  0.93409397     0.07300
C1597       C  0.87959116  0.29587258  0.92129078    -0.14800
C1598       C  0.87262789  0.28330206  0.89083715    -0.14800
C1599       C  0.89653456  0.26334500  0.87311786     0.07300
C1600       C  0.92813437  0.25933332  0.88526391    -0.14800
H1601       H  0.95930122  0.26725163  0.92485400     0.11300
H1602       H  0.86042106  0.30930606  0.93523732     0.11300
H1603       H  0.84811046  0.28647113  0.88195915     0.11300
H1604       H  0.94695340  0.24402619  0.87186402     0.11300
C1605       C  0.51913220  0.64275725  0.91230126    -0.14800
C1606       C  0.98634030  0.64432236  0.90288396     0.07300
C1607       C  0.97931656  0.64473898  0.87096057    -0.14800
C1608       C  0.50443346  0.64404288  0.84904469    -0.14800
C1609       C  0.53723375  0.64366681  0.85848547     0.07300
C1610       C  0.54425413  0.64280236  0.89039557    -0.14800
H1611       H  0.52546733  0.64283784  0.93670588     0.11300
H1612       H  0.95439771  0.64618424  0.86290120     0.11300
H1613       H  0.99815459  0.64523534  0.82464479     0.11300
H1614       H  0.56920368  0.64271317  0.89845724     0.11300
C1615       C  0.49891397  0.80918499  0.52099973    -0.14800
C1616       C  0.99756499  0.78348589  0.99432835     0.07300
C1617       C  0.52555728  0.77858695  0.97633696    -0.14800
C1618       C  0.55511514  0.79482426  0.98664818    -0.14800
C1619       C  0.55735089  0.81633353  0.51503644     0.07300
C1620       C  0.52884383  0.82539733  0.53145516    -0.14800
H1621       H  0.97761575  0.81301738  0.53541809     0.11300
H1622       H  0.52515432  0.75897942  0.95571735     0.11300
H1623       H  0.57683577  0.78651606  0.97409688     0.11300
H1624       H  0.53015635  0.84103662  0.55378582     0.11300
C1625       C  0.80478401  0.71051132  0.52412501    -0.14800
C1626       C  0.80704900  0.68838494  0.99601095     0.07300
C1627       C  0.77842784  0.67847859  0.97967736    -0.14800
C1628       C  0.74836192  0.69413677  0.99003216    -0.14800
C1629       C  0.74691728  0.72009129  0.51657825     0.07300
C1630       C  0.77511078  0.72601566  0.53438035    -0.14800
H1631       H  0.82652705  0.71946471  0.53667469     0.11300
H1632       H  0.77969316  0.66234998  0.95754761     0.11300
H1633       H  0.72697721  0.68950769  0.97569584     0.11300
H1634       H  0.77472526  0.74583579  0.55488459     0.11300
C1635       C  0.91467329  0.53288931  0.52895601    -0.14800
C1636       C  0.91532484  0.54513474  0.49772009     0.07300
C1637       C  0.91640106  0.51380692  0.97457629    -0.14800
C1638       C  0.91739480  0.47109452  0.98254269    -0.14800
C1639       C  0.91663203  0.45885321  0.51379929     0.07300
C1640       C  0.91497272  0.49020258  0.53689671    -0.14800
H1641       H  0.91386944  0.55632547  0.54724220     0.11300
H1642       H  0.91722536  0.52237510  0.95028287     0.11300
H1643       H  0.91870305  0.44767320  0.96427872     0.11300
H1644       H  0.91456406  0.48175860  0.56122368     0.11300
C1645       C  0.90407919  0.78364044  0.87260566    -0.14800
C1646       C  0.87943051  0.76573922  0.89070518     0.07300
C1647       C  0.84769898  0.76319575  0.87861061    -0.14800
C1648       C  0.84106907  0.77591396  0.84822353    -0.14800
C1649       C  0.86626677  0.79036665  0.82917463     0.07300
C1650       C  0.89757068  0.79555846  0.84193005    -0.14800
H1651       H  0.92873395  0.78558816  0.88137952     0.11300
H1652       H  0.82832614  0.74937199  0.89223470     0.11300
H1653       H  0.81679304  0.77155027  0.83893673     0.11300
H1654       H  0.91723395  0.80748467  0.82783562     0.11300
C1655       C  0.87684202  0.70625973  0.59202633    -0.14800
C1656       C  0.90785057  0.71274740  0.57917929     0.07300
C1657       C  0.93284605  0.72862948  0.59805390    -0.14800
C1658       C  0.92615992  0.74144325  0.62839561    -0.14800
C1659       C  0.89459974  0.73762276  0.64056767     0.07300
C1660       C  0.87030224  0.71828232  0.62265113    -0.14800
H1661       H  0.85736984  0.69332576  0.57799805     0.11300
H1662       H  0.95688956  0.73402620  0.58865404     0.11300
H1663       H  0.94528392  0.75633288  0.64190009     0.11300
H1664       H  0.84579711  0.71530806  0.63150122     0.11300
loop_ 
_geom_bond_atom_site_label_1 
_geom_bond_atom_site_label_2 
_geom_bond_distance 
_geom_bond_site_symmetry_2 
_ccdc_geom_bond_type 
O1            C9   1.270       .  A
O1         Cr435   2.011       .  S
O2            C3   1.257       .  A
O2         Cr435   1.972       .  S
C3            O4   1.261       .  A
C3          C368   1.474       .  S
O4          Cr20   2.012       .  S
O5            C6   1.265       .  A
O5          Cr20   1.999       .  S
C6            O7   1.264       .  A
C6          C398   1.474       .  S
O7          Cr21   2.001       .  S
O8            C9   1.268       .  A
O8          Cr21   1.993       .  S
C9          C358   1.490       .  S
O10         C434   1.259   1_554  A
O10         Cr19   1.984   1_554  S
O11          C12   1.269       .  A
O11         Cr19   2.021   1_554  S
C12          O13   1.259       .  A
C12         C408   1.475       .  S
O13        Cr436   1.972   1_554  S
O14          C15   1.264       .  A
O14         Cr20   1.991       .  S
C15          O16   1.268       .  A
C15         C378   1.474       .  S
O16         Cr21   2.010       .  S
O17          C18   1.262       .  A
O17         Cr21   2.004       .  S
C18         O426   1.259       .  A
C18         C804   1.480       .  S
Cr19        O417   2.011       .  S
Cr19        O418   1.972       .  S
Cr19        O438   1.766       .  S
Cr20        O429   1.972       .  S
Cr20         O22   1.769       .  S
Cr21         O22   1.772       .  S
O22        Cr435   1.766       .  S
O23          C31   1.270       .  A
O23         Cr41   2.010       .  S
O24          C25   1.257       .  A
O24         Cr41   1.971       .  S
C25          O26   1.262       .  A
C25         C308   1.478       .  S
O26         Cr42   2.014       .  S
O27          C28   1.265       .  A
O27         Cr42   1.997       .  S
C28          O29   1.263       .  A
C28         C338   1.471       .  S
O29         Cr43   1.999       .  S
O30          C31   1.268       .  A
O30         Cr43   1.990       .  S
C31         C328   1.487       .  S
O32          C40   1.260       .  A
O32         Cr41   1.988       .  S
O33          C34   1.268       .  A
O33        Cr457   2.018       .  S
C34          O35   1.258       .  A
C34         C348   1.471       .  S
O35        Cr458   1.968       .  S
O36          C37   1.264       .  A
O36         Cr42   1.989       .  S
C37          O38   1.267       .  A
C37         C318   1.470       .  S
O38         Cr43   2.006       .  S
O39          C40   1.261       .  A
O39         Cr43   1.999       .  S
C40         C391   1.481       .  S
Cr41        O449   2.018   1_554  S
Cr41         O44   1.765       .  S
Cr42        O451   1.968   1_554  S
Cr42         O44   1.768       .  S
Cr43         O44   1.772       .  S
O45          C53   1.271       .  A
O45        Cr479   2.014       .  S
O46          C47   1.257       .  A
O46        Cr479   1.970       .  S
C47          O48   1.261       .  A
C47         C321   1.478       .  S
O48         Cr64   2.013       .  S
O49          C50   1.265       .  A
O49         Cr64   1.996       .  S
C50          O51   1.265       .  A
C50         C288   1.471       .  S
O51         Cr65   2.000       .  S
O52          C53   1.268       .  A
O52         Cr65   1.991       .  S
C53         C298   1.491       .  S
O54         C478   1.259   1_554  A
O54         Cr63   1.985   1_554  S
O55          C56   1.270       .  A
O55         Cr63   2.023   1_554  S
C56          O57   1.258       .  A
C56         C278   1.476       .  S
O57        Cr480   1.969   1_554  S
O58          C59   1.263       .  A
O58         Cr64   1.988       .  S
C59          O60   1.267       .  A
C59         C311   1.471       .  S
O60         Cr65   2.009       .  S
O61          C62   1.262       .  A
O61         Cr65   2.003       .  S
C62         O470   1.259       .  A
C62         C684   1.483       .  S
Cr63        O461   2.014       .  S
Cr63        O462   1.970       .  S
Cr63        O482   1.764       .  S
Cr64        O473   1.969       .  S
Cr64         O66   1.770       .  S
Cr65         O66   1.772       .  S
O66        Cr479   1.764       .  S
O67          C75   1.269       .  A
O67         Cr85   2.008       .  S
O68          C69   1.257       .  A
O68         Cr85   1.971       .  S
C69          O70   1.263       .  A
C69         C381   1.480       .  S
O70         Cr86   2.021       .  S
O71          C72   1.266       .  A
O71         Cr86   2.001       .  S
C72          O73   1.264       .  A
C72         C261   1.475       .  S
O73         Cr87   2.002       .  S
O74          C75   1.267       .  A
O74         Cr87   1.987       .  S
C75         C238   1.484       .  S
O76          C84   1.259       .  A
O76         Cr85   1.985       .  S
O77          C78   1.268       .  A
O77        Cr501   2.015       .  S
C78          O79   1.259       .  A
C78         C248   1.472       .  S
O79        Cr502   1.973       .  S
O80          C81   1.264       .  A
O80         Cr86   1.990       .  S
C81          O82   1.267       .  A
C81         C371   1.468       .  S
O82         Cr87   2.003       .  S
O83          C84   1.262       .  A
O83         Cr87   2.005       .  S
C84         C271   1.481       .  S
Cr85        O493   2.015   1_554  S
Cr85         O88   1.764       .  S
Cr86        O495   1.973   1_554  S
Cr86         O88   1.769       .  S
Cr87         O88   1.773       .  S
O89          C97   1.270       .  A
O89        Cr107   2.010       .  S
O90          C91   1.257       .  A
O90        Cr107   1.968       .  S
C91          O92   1.262       .  A
C91         C221   1.476       .  S
O92        Cr108   2.014       .  S
O93          C94   1.266       .  A
O93        Cr108   2.000       .  S
C94          O95   1.264       .  A
C94         C281   1.473       .  S
O95        Cr109   1.998       .  S
O96          C97   1.267       .  A
O96        Cr109   1.987       .  S
C97         C331   1.485       .  S
O98         C106   1.258       .  A
O98        Cr107   1.982       .  S
O99         C100   1.269       .  A
O99        Cr107   2.017       .  S
C100        O101   1.259       .  A
C100        C291   1.474       .  S
O101       Cr108   1.973       .  S
O102        C103   1.264       .  A
O102       Cr108   1.988       .  S
C103        O104   1.266       .  A
C103        C208   1.468       .  S
O104       Cr109   2.003       .  S
O105        C106   1.260       .  A
O105       Cr109   1.998       .  S
C106        C228   1.477       .  S
Cr107       O110   1.763       .  S
Cr108       O110   1.769       .  S
Cr109       O110   1.772       .  S
O111        C119   1.271       .  A
O111       Cr129   2.014       .  S
O112        C113   1.257       .  A
O112       Cr129   1.969       .  S
C113        O114   1.262       .  A
C113        C198   1.475       .  S
O114       Cr130   2.011       .  S
O115        C116   1.265       .  A
O115       Cr130   1.997       .  S
C116        O117   1.263       .  A
C116        C251   1.470       .  S
O117       Cr131   1.996       .  S
O118        C119   1.268       .  A
O118       Cr131   1.990       .  S
C119        C361   1.489       .  S
O120        C128   1.259       .  A
O120       Cr129   1.985       .  S
O121        C122   1.269       .  A
O121       Cr129   2.022       .  S
C122        O123   1.259       .  A
C122        C258   1.477       .  S
O123       Cr130   1.973       .  S
O124        C125   1.264       .  A
O124       Cr130   1.987       .  S
C125        O126   1.267       .  A
C125        C191   1.470       .  S
O126       Cr131   2.007       .  S
O127        C128   1.260       .  A
O127       Cr131   1.995       .  S
C128        C231   1.477       .  S
Cr129       O132   1.764       .  S
Cr130       O132   1.768       .  S
Cr131       O132   1.773       .  S
O133        C141   1.271       .  A
O133       Cr151   2.013       .  S
O134        C135   1.256       .  A
O134       Cr151   1.968       .  S
C135        O136   1.261       .  A
C135        C211   1.473       .  S
O136       Cr152   2.010       .  S
O137        C138   1.265       .  A
O137       Cr152   1.996       .  S
C138        O139   1.264       .  A
C138        C351   1.470       .  S
O139       Cr153   1.998       .  S
O140        C141   1.268       .  A
O140       Cr153   1.990       .  S
C141        C301   1.489       .  S
O142        C150   1.259       .  A
O142       Cr151   1.986       .  S
O143        C144   1.269       .  A
O143       Cr151   2.020       .  S
C144        O145   1.259       .  A
C144        C341   1.475       .  S
O145       Cr152   1.971       .  S
O146        C147   1.263       .  A
O146       Cr152   1.988       .  S
C147        O148   1.268       .  A
C147        C218   1.470       .  S
O148       Cr153   2.007       .  S
O149        C150   1.261       .  A
O149       Cr153   1.998       .  S
C150        C178   1.478       .  S
Cr151       O154   1.766       .  S
Cr152       O154   1.769       .  S
Cr153       O154   1.771       .  S
O155        C163   1.270       .  A
O155       Cr173   2.009       .  S
O156        C157   1.256       .  A
O156       Cr173   1.968       .  S
C157        O158   1.262       .  A
C157        C188   1.477       .  S
O158       Cr174   2.013       .  S
O159        C160   1.265       .  A
O159       Cr174   1.999       .  S
C160        O161   1.263       .  A
C160        C411   1.472       .  S
O161       Cr175   1.998       .  S
O162        C163   1.267       .  A
O162       Cr175   1.987       .  S
C163        C241   1.484       .  S
O164        C172   1.259       .  A
O164       Cr173   1.983       .  S
O165        C166   1.269       .  A
O165       Cr173   2.021       .  S
C166        O167   1.259       .  A
C166        C401   1.477       .  S
O167       Cr174   1.973       .  S
O168        C169   1.264       .  A
O168       Cr174   1.987       .  S
C169        O170   1.268       .  A
C169        C201   1.469       .  S
O170       Cr175   2.005       .  S
O171        C172   1.261       .  A
O171       Cr175   2.000       .  S
C172        C181   1.479       .  S
Cr173       O176   1.765       .  S
Cr174       O176   1.769       .  S
Cr175       O176   1.773       .  S
C177        C178   1.407       .  A
C177        C182   1.397   1_545  A
C177        H183   1.083       .  S
C178        C179   1.403       .  A
C179        C180   1.400   1_545  A
C179        H184   1.083       .  S
C180        C181   1.409       .  A
C180        H185   1.083       .  S
C181        C182   1.402       .  A
C182        H186   1.083       .  S
C187        C188   1.400       .  A
C187        C192   1.389       .  A
C187        H193   1.084       .  S
C188        C189   1.410       .  A
C189        C190   1.407       .  A
C189        H194   1.083       .  S
C190        C191   1.403       .  A
C190        H195   1.083       .  S
C191        C192   1.403       .  A
C192        H196   1.081       .  S
C197        C198   1.400   1_655  A
C197       C1034   1.389       .  A
C197        H203   1.084       .  S
C198        C199   1.409       .  A
C199       C1032   1.406   1_455  A
C199        H204   1.083       .  S
C200        C201   1.403       .  A
C200       C1031   1.406       .  A
C200        H205   1.083       .  S
C201        C202   1.403       .  A
C202       C1029   1.389       .  A
C202        H206   1.080       .  S
C207        C208   1.402       .  A
C207        C212   1.389       .  A
C207        H213   1.080       .  S
C208        C209   1.402       .  A
C209        C210   1.405       .  A
C209        H214   1.083       .  S
C210        C211   1.409       .  A
C210        H215   1.083       .  S
C211        C212   1.399       .  A
C212        H216   1.084       .  S
C217        C222   1.407   1_655  A
C217       C1050   1.403       .  A
C217        H223   1.083       .  S
C218        C219   1.402       .  A
C218       C1049   1.403       .  A
C219       C1052   1.389       .  A
C219        H224   1.080       .  S
C220        C221   1.400   1_655  A
C220       C1051   1.389       .  A
C220       H1057   1.084       .  S
C221        C222   1.410       .  A
C222        H226   1.083       .  S
H225       C1052   1.084       .  S
C227        C228   1.408       .  A
C227        C232   1.398       .  A
C227        H233   1.083       .  S
C228        C229   1.402       .  A
C229        C230   1.397       .  A
C229        H234   1.083       .  S
C230        C231   1.407       .  A
C230        H235   1.083       .  S
C231        C232   1.402       .  A
C232        H236   1.083       .  S
C237        C238   1.408       .  A
C237        C242   1.400       .  A
C237        H243   1.083       .  S
C238        C239   1.404       .  A
C239        C240   1.400       .  A
C239        H244   1.083       .  S
C240        C241   1.408       .  A
C240        H245   1.083       .  S
C241        C242   1.404       .  A
C242        H246   1.083       .  S
C247        C248   1.407       .  A
C247        C252   1.400       .  A
C247        H253   1.080       .  S
C248        C249   1.400       .  A
C249        C250   1.395       .  A
C249        H254   1.083       .  S
C250        C251   1.406       .  A
C250        H255   1.084       .  S
C251        C252   1.401       .  A
C252        H256   1.083       .  S
C257        C258   1.408       .  A
C257        C262   1.402       .  A
C257        H263   1.082       .  S
C258        C259   1.401       .  A
C259        C260   1.398       .  A
C259        H264   1.083       .  S
C260        C261   1.407       .  A
C260        H265   1.084       .  S
C261        C262   1.401       .  A
C262        H266   1.083       .  S
C267        C268   1.404   1_554  A
C267        C272   1.400   1_545  A
C267        H273   1.083       .  S
C268        C478   1.483       .  S
C268        C269   1.408       .  A
C269        C270   1.399   1_545  A
C269        H274   1.083       .  S
C270        C271   1.403   1_556  A
C270        H275   1.083       .  S
C271        C272   1.407       .  A
C272        H276   1.083       .  S
C277        C278   1.409       .  A
C277        C282   1.402       .  A
C277        H283   1.081       .  S
C278        C279   1.400       .  A
C279        C280   1.397       .  A
C279        H284   1.083       .  S
C280        C281   1.406       .  A
C280        H285   1.084       .  S
C281        C282   1.401       .  A
C282        H286   1.083       .  S
C287        C288   1.401       .  A
C287        C292   1.401       .  A
C287        H293   1.083       .  S
C288        C289   1.406       .  A
C289        C290   1.395       .  A
C289        H294   1.084       .  S
C290        C291   1.400       .  A
C290        H295   1.083       .  S
C291        C292   1.408       .  A
C292        H296   1.081       .  S
C297        C298   1.406       .  A
C297        C302   1.404       .  A
C297        H303   1.083       .  S
C298        C299   1.408       .  A
C299        C300   1.402       .  A
C299        H304   1.083       .  S
C300        C301   1.405       .  A
C300        H305   1.083       .  S
C301        C302   1.409       .  A
C302        H306   1.083       .  S
C307        C312   1.407       .  A
C307       C1556   1.410       .  A
C307        H313   1.083   1_455  S
C308       C1555   1.410   1_554  A
C308       C1141   1.400       .  A
C309        C310   1.389       .  A
C309       C1140   1.400       .  A
C309       H1146   1.084       .  S
C310        C727   1.403   1_554  A
C310        H315   1.080       .  S
C311        C312   1.403       .  A
C311        C726   1.403       .  A
C312        H316   1.083       .  S
H314       C1141   1.084       .  S
C317        C318   1.403       .  A
C317        C322   1.407       .  A
C317        H323   1.083       .  S
C318        C319   1.403   1_554  A
C319        C736   1.389       .  A
C319        H324   1.081       .  S
C320        C321   1.400       .  A
C320        C735   1.389       .  A
C320        H325   1.084       .  S
C321        C738   1.410       .  A
C322        C737   1.410   1_554  A
C322        H326   1.083       .  S
C327        C332   1.401       .  A
C327       C1160   1.409   1_455  A
C327        H333   1.083       .  S
C328        C329   1.405       .  A
C328       C1159   1.409       .  A
C329       C1162   1.401       .  A
C329        H334   1.083       .  S
C330        C331   1.408       .  A
C330       C1161   1.401   1_455  A
C330       H1167   1.083       .  S
C331        C332   1.404       .  A
C332        H336   1.083       .  S
H335       C1162   1.083       .  S
C337        C338   1.407       .  A
C337        C342   1.397       .  A
C337        H343   1.084       .  S
C338        C339   1.400       .  A
C339        C340   1.400       .  A
C339        H344   1.083       .  S
C340        C341   1.407       .  A
C340        H345   1.081       .  S
C341        C342   1.401       .  A
C342        H346   1.083       .  S
C347        C348   1.400       .  A
C347        C352   1.396       .  A
C347        H353   1.084       .  S
C348        C349   1.407       .  A
C349        C350   1.399       .  A
C349        H354   1.082       .  S
C350        C351   1.400       .  A
C350        H355   1.083       .  S
C351        C352   1.407       .  A
C352        H356   1.084       .  S
C357        C362   1.402       .  A
C357       C1190   1.409   1_455  A
C357        H363   1.083       .  S
C358        C359   1.405       .  A
C358       C1189   1.409       .  A
C359       C1192   1.403       .  A
C359        H364   1.083       .  S
C360        C361   1.409       .  A
C360       C1191   1.403   1_455  A
C360       H1197   1.083   1_455  S
C361        C362   1.405       .  A
C362        H366   1.083       .  S
H365       C1192   1.083       .  S
C367        C372   1.405   1_655  A
C367       C1616   1.409   1_554  A
C367       H1205   1.083       .  S
C368       C1615   1.409       .  A
C368       C1201   1.400       .  A
C369        C370   1.390       .  A
C369       C1200   1.400   1_455  A
C369        H374   1.084       .  S
C370        C787   1.402       .  A
C370        H375   1.080       .  S
C371        C372   1.402       .  A
C371        C786   1.402   1_554  A
C372        H376   1.083       .  S
H373       C1199   1.083       .  S
C377        C382   1.391       .  A
C377        C794   1.403   1_554  A
C377        H383   1.081       .  S
C378        C379   1.404       .  A
C378        C793   1.403       .  A
C379        C380   1.409       .  A
C379        H384   1.083       .  S
C380        C797   1.410       .  A
C380        H385   1.083       .  S
C381        C382   1.401       .  A
C381        C796   1.410   1_554  A
C382        H386   1.084       .  S
C387        C388   1.403   1_554  A
C387        C392   1.398       .  A
C387        H393   1.083       .  S
C388        C434   1.480       .  S
C388        C805   1.408       .  A
C389        C390   1.400       .  A
C389        C804   1.408       .  A
C389        H394   1.083       .  S
C390        C807   1.403       .  A
C390        H395   1.083       .  S
C391        C392   1.408       .  A
C391        C806   1.403   1_554  A
C392        H396   1.083       .  S
C397        C398   1.401       .  A
C397        C402   1.402       .  A
C397        H403   1.083       .  S
C398        C399   1.407       .  A
C399        C400   1.398       .  A
C399        H404   1.084       .  S
C400        C401   1.401       .  A
C400        H405   1.083       .  S
C401        C402   1.408       .  A
C402        H406   1.081       .  S
C407        C408   1.407       .  A
C407        C412   1.400       .  A
C407        H413   1.081       .  S
C408        C409   1.401       .  A
C409        C410   1.397       .  A
C409        H414   1.083       .  S
C410        C411   1.407       .  A
C410        H415   1.084       .  S
C411        C412   1.400       .  A
C412        H416   1.083       .  S
O417        C425   1.270       .  A
O418        C419   1.257       .  A
C419        O420   1.261       .  A
C419        C784   1.474       .  S
O420       Cr436   2.012       .  S
O421        C422   1.265       .  A
O421       Cr436   1.999       .  S
C422        O423   1.264       .  A
C422        C814   1.474       .  S
O423       Cr437   2.001       .  S
O424        C425   1.268       .  A
O424       Cr437   1.993       .  S
C425        C774   1.490       .  S
O426       Cr435   1.984       .  S
O427        C428   1.269       .  A
O427       Cr435   2.021       .  S
C428        O429   1.259       .  A
C428        C824   1.475       .  S
O430        C431   1.264       .  A
O430       Cr436   1.991       .  S
C431        O432   1.268       .  A
C431        C794   1.474       .  S
O432       Cr437   2.010       .  S
O433        C434   1.262       .  A
O433       Cr437   2.004       .  S
Cr436       O438   1.769       .  S
Cr437       O438   1.772       .  S
O439        C447   1.270       .  A
O439       Cr457   2.010       .  S
O440        C441   1.257       .  A
O440       Cr457   1.971       .  S
C441        O442   1.262       .  A
C441        C724   1.478       .  S
O442       Cr458   2.014       .  S
O443        C444   1.265       .  A
O443       Cr458   1.997       .  S
C444        O445   1.263       .  A
C444        C754   1.471       .  S
O445       Cr459   1.999       .  S
O446        C447   1.268       .  A
O446       Cr459   1.990       .  S
C447        C744   1.487       .  S
O448        C456   1.260       .  A
O448       Cr457   1.988       .  S
O449        C450   1.268       .  A
C450        O451   1.258       .  A
C450        C764   1.471       .  S
O452        C453   1.264       .  A
O452       Cr458   1.989       .  S
C453        O454   1.267       .  A
C453        C734   1.470       .  S
O454       Cr459   2.006       .  S
O455        C456   1.261       .  A
O455       Cr459   1.999       .  S
C456        C807   1.481       .  S
Cr457       O460   1.765       .  S
Cr458       O460   1.768       .  S
Cr459       O460   1.772       .  S
O461        C469   1.271       .  A
O462        C463   1.257       .  A
C463        O464   1.261       .  A
C463        C737   1.478       .  S
O464       Cr480   2.013       .  S
O465        C466   1.265       .  A
O465       Cr480   1.996       .  S
C466        O467   1.265       .  A
C466        C704   1.471       .  S
O467       Cr481   2.000       .  S
O468        C469   1.268       .  A
O468       Cr481   1.991       .  S
C469        C714   1.491       .  S
O470       Cr479   1.985       .  S
O471        C472   1.270       .  A
O471       Cr479   2.023       .  S
C472        O473   1.258       .  A
C472        C694   1.476       .  S
O474        C475   1.263       .  A
O474       Cr480   1.988       .  S
C475        O476   1.267       .  A
C475        C727   1.471       .  S
O476       Cr481   2.009       .  S
O477        C478   1.262       .  A
O477       Cr481   2.003       .  S
Cr480       O482   1.770       .  S
Cr481       O482   1.772       .  S
O483        C491   1.269       .  A
O483       Cr501   2.008       .  S
O484        C485   1.257       .  A
O484       Cr501   1.971       .  S
C485        O486   1.263       .  A
C485        C797   1.480       .  S
O486       Cr502   2.021       .  S
O487        C488   1.266       .  A
O487       Cr502   2.001       .  S
C488        O489   1.264       .  A
C488        C677   1.475       .  S
O489       Cr503   2.002       .  S
O490        C491   1.267       .  A
O490       Cr503   1.987       .  S
C491        C654   1.484       .  S
O492        C500   1.259       .  A
O492       Cr501   1.985       .  S
O493        C494   1.268       .  A
C494        O495   1.259       .  A
C494        C664   1.472       .  S
O496        C497   1.264       .  A
O496       Cr502   1.990       .  S
C497        O498   1.267       .  A
C497        C787   1.468       .  S
O498       Cr503   2.003       .  S
O499        C500   1.262       .  A
O499       Cr503   2.005       .  S
C500        C687   1.481       .  S
Cr501       O504   1.764       .  S
Cr502       O504   1.769       .  S
Cr503       O504   1.773       .  S
O505        C513   1.270       .  A
O505       Cr523   2.010       .  S
O506        C507   1.257       .  A
O506       Cr523   1.968       .  S
C507        O508   1.262       .  A
C507        C637   1.476       .  S
O508       Cr524   2.014       .  S
O509        C510   1.266       .  A
O509       Cr524   2.000       .  S
C510        O511   1.264       .  A
C510        C697   1.473       .  S
O511       Cr525   1.998       .  S
O512        C513   1.267       .  A
O512       Cr525   1.987       .  S
C513        C747   1.485       .  S
O514        C522   1.258       .  A
O514       Cr523   1.982       .  S
O515        C516   1.269       .  A
O515       Cr523   2.017       .  S
C516        O517   1.259       .  A
C516        C707   1.474       .  S
O517       Cr524   1.973       .  S
O518        C519   1.264       .  A
O518       Cr524   1.988       .  S
C519        O520   1.266       .  A
C519        C624   1.468       .  S
O520       Cr525   2.003       .  S
O521        C522   1.260       .  A
O521       Cr525   1.998       .  S
C522        C644   1.477       .  S
Cr523       O526   1.763       .  S
Cr524       O526   1.769       .  S
Cr525       O526   1.772       .  S
O527        C535   1.271       .  A
O527       Cr545   2.014       .  S
O528        C529   1.257       .  A
O528       Cr545   1.969       .  S
C529        O530   1.262       .  A
C529        C614   1.475       .  S
O530       Cr546   2.011       .  S
O531        C532   1.265       .  A
O531       Cr546   1.997       .  S
C532        O533   1.263       .  A
C532        C667   1.470       .  S
O533       Cr547   1.996       .  S
O534        C535   1.268       .  A
O534       Cr547   1.990       .  S
C535        C777   1.489       .  S
O536        C544   1.259       .  A
O536       Cr545   1.985       .  S
O537        C538   1.269       .  A
O537       Cr545   2.022       .  S
C538        O539   1.259       .  A
C538        C674   1.477       .  S
O539       Cr546   1.973       .  S
O540        C541   1.264       .  A
O540       Cr546   1.987       .  S
C541        O542   1.267       .  A
C541        C607   1.470       .  S
O542       Cr547   2.007       .  S
O543        C544   1.260       .  A
O543       Cr547   1.995       .  S
C544        C647   1.477       .  S
Cr545       O548   1.764       .  S
Cr546       O548   1.768       .  S
Cr547       O548   1.773       .  S
O549        C557   1.271       .  A
O549       Cr567   2.013       .  S
O550        C551   1.256       .  A
O550       Cr567   1.968       .  S
C551        O552   1.261       .  A
C551        C627   1.473       .  S
O552       Cr568   2.010       .  S
O553        C554   1.265       .  A
O553       Cr568   1.996       .  S
C554        O555   1.264       .  A
C554        C767   1.470       .  S
O555       Cr569   1.998       .  S
O556        C557   1.268       .  A
O556       Cr569   1.990       .  S
C557        C717   1.489       .  S
O558        C566   1.259       .  A
O558       Cr567   1.986       .  S
O559        C560   1.269       .  A
O559       Cr567   2.020       .  S
C560        O561   1.259       .  A
C560        C757   1.475       .  S
O561       Cr568   1.971       .  S
O562        C563   1.263       .  A
O562       Cr568   1.988       .  S
C563        O564   1.268       .  A
C563        C634   1.470       .  S
O564       Cr569   2.007       .  S
O565        C566   1.261       .  A
O565       Cr569   1.998       .  S
C566        C594   1.478       .  S
Cr567       O570   1.766       .  S
Cr568       O570   1.769       .  S
Cr569       O570   1.771       .  S
O571        C579   1.270       .  A
O571       Cr589   2.009       .  S
O572        C573   1.256       .  A
O572       Cr589   1.968       .  S
C573        O574   1.262       .  A
C573        C604   1.477       .  S
O574       Cr590   2.013       .  S
O575        C576   1.265       .  A
O575       Cr590   1.999       .  S
C576        O577   1.263       .  A
C576        C827   1.472       .  S
O577       Cr591   1.998       .  S
O578        C579   1.267       .  A
O578       Cr591   1.987       .  S
C579        C657   1.484       .  S
O580        C588   1.259       .  A
O580       Cr589   1.983       .  S
O581        C582   1.269       .  A
O581       Cr589   2.021       .  S
C582        O583   1.259       .  A
C582        C817   1.477       .  S
O583       Cr590   1.973       .  S
O584        C585   1.264       .  A
O584       Cr590   1.987       .  S
C585        O586   1.268       .  A
C585        C617   1.469       .  S
O586       Cr591   2.005       .  S
O587        C588   1.261       .  A
O587       Cr591   2.000       .  S
C588        C597   1.479       .  S
Cr589       O592   1.765       .  S
Cr590       O592   1.769       .  S
Cr591       O592   1.773       .  S
C593        C594   1.407       .  A
C593        C598   1.397   1_545  A
C593        H599   1.083       .  S
C594        C595   1.403       .  A
C595        C596   1.400   1_545  A
C595        H600   1.083       .  S
C596        C597   1.409       .  A
C596        H601   1.083       .  S
C597        C598   1.402       .  A
C598        H602   1.083       .  S
C603        C604   1.400       .  A
C603        C608   1.389       .  A
C603        H609   1.084       .  S
C604        C605   1.410       .  A
C605        C606   1.407       .  A
C605        H610   1.083       .  S
C606        C607   1.403       .  A
C606        H611   1.083       .  S
C607        C608   1.403       .  A
C608        H612   1.081       .  S
C613        C614   1.400   1_655  A
C613       C1450   1.389       .  A
C613        H619   1.084       .  S
C614        C615   1.409       .  A
C615       C1448   1.406   1_455  A
C615        H620   1.083       .  S
C616       C1447   1.406       .  A
C616        C617   1.403       .  A
C616        H621   1.083       .  S
C617        C618   1.403       .  A
C618       C1445   1.389       .  A
C618        H622   1.080       .  S
C623        C624   1.402       .  A
C623        C628   1.389       .  A
C623        H629   1.080       .  S
C624        C625   1.402       .  A
C625        C626   1.405       .  A
C625        H630   1.083       .  S
C626        C627   1.409       .  A
C626        H631   1.083       .  S
C627        C628   1.399       .  A
C628        H632   1.084       .  S
C633       C1466   1.403       .  A
C633        C638   1.407   1_655  A
C633        H639   1.083       .  S
C634       C1465   1.403       .  A
C634        C635   1.402       .  A
C635       C1468   1.389       .  A
C635        H640   1.080       .  S
C636       C1467   1.389       .  A
C636        C637   1.400   1_655  A
C636       H1473   1.084       .  S
C637        C638   1.410       .  A
C638        H642   1.083       .  S
H641       C1468   1.084       .  S
C643        C644   1.408       .  A
C643        C648   1.398       .  A
C643        H649   1.083       .  S
C644        C645   1.402       .  A
C645        C646   1.397       .  A
C645        H650   1.083       .  S
C646        C647   1.407       .  A
C646        H651   1.083       .  S
C647        C648   1.402       .  A
C648        H652   1.083       .  S
C653        C654   1.408       .  A
C653        C658   1.400       .  A
C653        H659   1.083       .  S
C654        C655   1.404       .  A
C655        C656   1.400       .  A
C655        H660   1.083       .  S
C656        C657   1.408       .  A
C656        H661   1.083       .  S
C657        C658   1.404       .  A
C658        H662   1.083       .  S
C663        C664   1.407       .  A
C663        C668   1.400       .  A
C663        H669   1.080       .  S
C664        C665   1.400       .  A
C665        C666   1.395       .  A
C665        H670   1.083       .  S
C666        C667   1.406       .  A
C666        H671   1.084       .  S
C667        C668   1.401       .  A
C668        H672   1.083       .  S
C673        C674   1.408       .  A
C673        C678   1.402       .  A
C673        H679   1.082       .  S
C674        C675   1.401       .  A
C675        C676   1.398       .  A
C675        H680   1.083       .  S
C676        C677   1.407       .  A
C676        H681   1.084       .  S
C677        C678   1.401       .  A
C678        H682   1.083       .  S
C683        C684   1.404       .  A
C683        C688   1.400   1_545  A
C683        H689   1.083       .  S
C684        C685   1.408       .  A
C685        C686   1.399   1_545  A
C685        H690   1.083       .  S
C686        C687   1.403       .  A
C686        H691   1.083       .  S
C687        C688   1.407       .  A
C688        H692   1.083       .  S
C693        C694   1.409       .  A
C693        C698   1.402       .  A
C693        H699   1.081       .  S
C694        C695   1.400       .  A
C695        C696   1.397       .  A
C695        H700   1.083       .  S
C696        C697   1.406       .  A
C696        H701   1.084       .  S
C697        C698   1.401       .  A
C698        H702   1.083       .  S
C703        C704   1.401       .  A
C703        C708   1.401       .  A
C703        H709   1.083       .  S
C704        C705   1.406       .  A
C705        C706   1.395       .  A
C705        H710   1.084       .  S
C706        C707   1.400       .  A
C706        H711   1.083       .  S
C707        C708   1.408       .  A
C708        H712   1.081       .  S
C713        C714   1.406       .  A
C713        C718   1.404       .  A
C713        H719   1.083       .  S
C714        C715   1.408       .  A
C715        C716   1.402       .  A
C715        H720   1.083       .  S
C716        C717   1.405       .  A
C716        H721   1.083       .  S
C717        C718   1.409       .  A
C718        H722   1.083       .  S
C723       C1140   1.410   1_556  A
C723        C728   1.407       .  A
C723        H729   1.083   1_455  S
C724       C1139   1.410       .  A
C724       C1557   1.400       .  A
C725       C1556   1.400       .  A
C725        C726   1.389       .  A
C725       H1562   1.084       .  S
C726        H731   1.080       .  S
C727        C728   1.403       .  A
C728        H732   1.083       .  S
H730       C1557   1.084       .  S
C733        C734   1.403       .  A
C733        C738   1.407       .  A
C733        H739   1.083       .  S
C734        C735   1.403       .  A
C735        H740   1.081       .  S
C736        C737   1.400       .  A
C736        H741   1.084       .  S
C738        H742   1.083       .  S
C743       C1576   1.409   1_455  A
C743        C748   1.401       .  A
C743        H749   1.083       .  S
C744       C1575   1.409       .  A
C744        C745   1.405       .  A
C745       C1578   1.401       .  A
C745        H750   1.083       .  S
C746       C1577   1.401   1_455  A
C746        C747   1.408       .  A
C746       H1583   1.083       .  S
C747        C748   1.404       .  A
C748        H752   1.083       .  S
H751       C1578   1.083       .  S
C753        C754   1.407       .  A
C753        C758   1.397       .  A
C753        H759   1.084       .  S
C754        C755   1.400       .  A
C755        C756   1.400       .  A
C755        H760   1.083       .  S
C756        C757   1.407       .  A
C756        H761   1.081       .  S
C757        C758   1.401       .  A
C758        H762   1.083       .  S
C763        C764   1.400       .  A
C763        C768   1.396       .  A
C763        H769   1.084       .  S
C764        C765   1.407       .  A
C765        C766   1.399       .  A
C765        H770   1.082       .  S
C766        C767   1.400       .  A
C766        H771   1.083       .  S
C767        C768   1.407       .  A
C768        H772   1.084       .  S
C773       C1606   1.409   1_455  A
C773        C778   1.402       .  A
C773        H779   1.083       .  S
C774       C1605   1.409       .  A
C774        C775   1.405       .  A
C775       C1608   1.403       .  A
C775        H780   1.083       .  S
C776       C1607   1.403   1_455  A
C776        C777   1.409       .  A
C776       H1613   1.083   1_455  S
C777        C778   1.405       .  A
C778        H782   1.083       .  S
H781       C1608   1.083       .  S
C783       C1200   1.409       .  A
C783        C788   1.405   1_655  A
C783       H1621   1.083       .  S
C784       C1199   1.409   1_556  A
C784       C1617   1.400       .  A
C785       C1616   1.400   1_455  A
C785        C786   1.390       .  A
C785        H790   1.084       .  S
C786        H791   1.080       .  S
C787        C788   1.402       .  A
C788        H792   1.083       .  S
H789       C1615   1.083       .  S
C793        C798   1.391       .  A
C793        H799   1.081       .  S
C794        C795   1.404       .  A
C795        C796   1.409       .  A
C795        H800   1.083       .  S
C796        H801   1.083       .  S
C797        C798   1.401       .  A
C798        H802   1.084       .  S
C803        C804   1.403       .  A
C803        C808   1.398       .  A
C803        H809   1.083       .  S
C805        C806   1.400       .  A
C805        H810   1.083       .  S
C806        H811   1.083       .  S
C807        C808   1.408       .  A
C808        H812   1.083       .  S
C813        C814   1.401       .  A
C813        C818   1.402       .  A
C813        H819   1.083       .  S
C814        C815   1.407       .  A
C815        C816   1.398       .  A
C815        H820   1.084       .  S
C816        C817   1.401       .  A
C816        H821   1.083       .  S
C817        C818   1.408       .  A
C818        H822   1.081       .  S
C823        C824   1.407       .  A
C823        C828   1.400       .  A
C823        H829   1.081       .  S
C824        C825   1.401       .  A
C825        C826   1.397       .  A
C825        H830   1.083       .  S
C826        C827   1.407       .  A
C826        H831   1.084       .  S
C827        C828   1.400       .  A
C828        H832   1.083       .  S
O833        C841   1.270       .  A
O833      Cr1267   2.011       .  S
O834        C835   1.257       .  A
O834      Cr1267   1.972       .  S
C835        O836   1.261       .  A
C835       C1200   1.474       .  S
O836       Cr852   2.012       .  S
O837        C838   1.265       .  A
O837       Cr852   1.999       .  S
C838        O839   1.264       .  A
C838       C1230   1.474       .  S
O839       Cr853   2.001       .  S
O840        C841   1.268       .  A
O840       Cr853   1.993       .  S
C841       C1190   1.490       .  S
O842       C1266   1.259   1_554  A
O842       Cr851   1.984   1_554  S
O843        C844   1.269       .  A
O843       Cr851   2.021   1_554  S
C844        O845   1.259       .  A
C844       C1240   1.475       .  S
O845      Cr1268   1.972   1_554  S
O846        C847   1.264       .  A
O846       Cr852   1.991       .  S
C847        O848   1.268       .  A
C847       C1210   1.474       .  S
O848       Cr853   2.010       .  S
O849        C850   1.262       .  A
O849       Cr853   2.004       .  S
C850       O1258   1.259       .  A
C850       C1636   1.480       .  S
Cr851      O1249   2.011       .  S
Cr851      O1250   1.972       .  S
Cr851      O1270   1.766       .  S
Cr852      O1261   1.972       .  S
Cr852       O854   1.769       .  S
Cr853       O854   1.772       .  S
O854      Cr1267   1.766       .  S
O855        C863   1.270       .  A
O855       Cr873   2.010       .  S
O856        C857   1.257       .  A
O856       Cr873   1.971       .  S
C857        O858   1.262       .  A
C857       C1140   1.478   1_655  S
O858       Cr874   2.014       .  S
O859        C860   1.265       .  A
O859       Cr874   1.997       .  S
C860        O861   1.263       .  A
C860       C1170   1.471       .  S
O861       Cr875   1.999       .  S
O862        C863   1.268       .  A
O862       Cr875   1.990       .  S
C863       C1160   1.487       .  S
O864        C872   1.260       .  A
O864       Cr873   1.988       .  S
O865        C866   1.268       .  A
O865      Cr1289   2.018       .  S
C866        O867   1.258       .  A
C866       C1180   1.471       .  S
O867      Cr1290   1.968       .  S
O868        C869   1.264       .  A
O868       Cr874   1.989       .  S
C869        O870   1.267       .  A
C869       C1150   1.470       .  S
O870       Cr875   2.006       .  S
O871        C872   1.261       .  A
O871       Cr875   1.999       .  S
C872       C1223   1.481       .  S
Cr873      O1281   2.018   1_554  S
Cr873       O876   1.765       .  S
Cr874      O1283   1.968   1_554  S
Cr874       O876   1.768       .  S
Cr875       O876   1.772       .  S
O877        C885   1.271       .  A
O877      Cr1311   2.014       .  S
O878        C879   1.257       .  A
O878      Cr1311   1.970       .  S
C879        O880   1.261       .  A
C879       C1153   1.478       .  S
O880       Cr896   2.013       .  S
O881        C882   1.265       .  A
O881       Cr896   1.996       .  S
C882        O883   1.265       .  A
C882       C1120   1.471       .  S
O883       Cr897   2.000       .  S
O884        C885   1.268       .  A
O884       Cr897   1.991       .  S
C885       C1130   1.491       .  S
O886       C1310   1.259   1_554  A
O886       Cr895   1.985   1_554  S
O887        C888   1.270       .  A
O887       Cr895   2.023   1_554  S
C888        O889   1.258       .  A
C888       C1110   1.476       .  S
O889      Cr1312   1.969   1_554  S
O890        C891   1.263       .  A
O890       Cr896   1.988       .  S
C891        O892   1.267       .  A
C891       C1143   1.471       .  S
O892       Cr897   2.009       .  S
O893        C894   1.262       .  A
O893       Cr897   2.003       .  S
C894       O1302   1.259       .  A
C894       C1516   1.483       .  S
Cr895      O1293   2.014       .  S
Cr895      O1294   1.970       .  S
Cr895      O1314   1.764       .  S
Cr896      O1305   1.969       .  S
Cr896       O898   1.770       .  S
Cr897       O898   1.772       .  S
O898      Cr1311   1.764       .  S
O899        C907   1.269       .  A
O899       Cr917   2.008       .  S
O900        C901   1.257       .  A
O900       Cr917   1.971       .  S
C901        O902   1.263       .  A
C901       C1213   1.480       .  S
O902       Cr918   2.021       .  S
O903        C904   1.266       .  A
O903       Cr918   2.001       .  S
C904        O905   1.264       .  A
C904       C1093   1.475       .  S
O905       Cr919   2.002       .  S
O906        C907   1.267       .  A
O906       Cr919   1.987       .  S
C907       C1070   1.484       .  S
O908        C916   1.259       .  A
O908       Cr917   1.985       .  S
O909        C910   1.268       .  A
O909      Cr1333   2.015       .  S
C910        O911   1.259       .  A
C910       C1080   1.472       .  S
O911      Cr1334   1.973       .  S
O912        C913   1.264       .  A
O912       Cr918   1.990       .  S
C913        O914   1.267       .  A
C913       C1203   1.468       .  S
O914       Cr919   2.003       .  S
O915        C916   1.262       .  A
O915       Cr919   2.005       .  S
C916       C1103   1.481       .  S
Cr917      O1325   2.015   1_554  S
Cr917       O920   1.764       .  S
Cr918      O1327   1.973   1_554  S
Cr918       O920   1.769       .  S
Cr919       O920   1.773       .  S
O921        C929   1.270       .  A
O921       Cr939   2.010       .  S
O922        C923   1.257       .  A
O922       Cr939   1.968       .  S
C923        O924   1.262       .  A
C923       C1053   1.476       .  S
O924       Cr940   2.014       .  S
O925        C926   1.266       .  A
O925       Cr940   2.000       .  S
C926        O927   1.264       .  A
C926       C1113   1.473       .  S
O927       Cr941   1.998       .  S
O928        C929   1.267       .  A
O928       Cr941   1.987       .  S
C929       C1163   1.485       .  S
O930        C938   1.258       .  A
O930       Cr939   1.982       .  S
O931        C932   1.269       .  A
O931       Cr939   2.017       .  S
C932        O933   1.259       .  A
C932       C1123   1.474       .  S
O933       Cr940   1.973       .  S
O934        C935   1.264       .  A
O934       Cr940   1.988       .  S
C935        O936   1.266       .  A
C935       C1040   1.468       .  S
O936       Cr941   2.003       .  S
O937        C938   1.260       .  A
O937       Cr941   1.998       .  S
C938       C1060   1.477       .  S
Cr939       O942   1.763       .  S
Cr940       O942   1.769       .  S
Cr941       O942   1.772       .  S
O943        C951   1.271       .  A
O943       Cr961   2.014       .  S
O944        C945   1.257       .  A
O944       Cr961   1.969       .  S
C945        O946   1.262       .  A
C945       C1030   1.475       .  S
O946       Cr962   2.011       .  S
O947        C948   1.265       .  A
O947       Cr962   1.997       .  S
C948        O949   1.263       .  A
C948       C1083   1.470       .  S
O949       Cr963   1.996       .  S
O950        C951   1.268       .  A
O950       Cr963   1.990       .  S
C951       C1193   1.489       .  S
O952        C960   1.259       .  A
O952       Cr961   1.985       .  S
O953        C954   1.269       .  A
O953       Cr961   2.022       .  S
C954        O955   1.259       .  A
C954       C1090   1.477       .  S
O955       Cr962   1.973       .  S
O956        C957   1.264       .  A
O956       Cr962   1.987       .  S
C957        O958   1.267       .  A
C957       C1023   1.470       .  S
O958       Cr963   2.007       .  S
O959        C960   1.260       .  A
O959       Cr963   1.995       .  S
C960       C1063   1.477       .  S
Cr961       O964   1.764       .  S
Cr962       O964   1.768       .  S
Cr963       O964   1.773       .  S
O965        C973   1.271       .  A
O965       Cr983   2.013       .  S
O966        C967   1.256       .  A
O966       Cr983   1.968       .  S
C967        O968   1.261       .  A
C967       C1043   1.473       .  S
O968       Cr984   2.010       .  S
O969        C970   1.265       .  A
O969       Cr984   1.996       .  S
C970        O971   1.264       .  A
C970       C1183   1.470       .  S
O971       Cr985   1.998       .  S
O972        C973   1.268       .  A
O972       Cr985   1.990       .  S
C973       C1133   1.489       .  S
O974        C982   1.259       .  A
O974       Cr983   1.986       .  S
O975        C976   1.269       .  A
O975       Cr983   2.020       .  S
C976        O977   1.259       .  A
C976       C1173   1.475       .  S
O977       Cr984   1.971       .  S
O978        C979   1.263       .  A
O978       Cr984   1.988       .  S
C979        O980   1.268       .  A
C979       C1050   1.470       .  S
O980       Cr985   2.007       .  S
O981        C982   1.261       .  A
O981       Cr985   1.998       .  S
C982       C1010   1.478       .  S
Cr983       O986   1.766       .  S
Cr984       O986   1.769       .  S
Cr985       O986   1.771       .  S
O987        C995   1.270       .  A
O987      Cr1005   2.009       .  S
O988        C989   1.256       .  A
O988      Cr1005   1.968       .  S
C989        O990   1.262       .  A
C989       C1020   1.477       .  S
O990      Cr1006   2.013       .  S
O991        C992   1.265       .  A
O991      Cr1006   1.999       .  S
C992        O993   1.263       .  A
C992       C1243   1.472       .  S
O993      Cr1007   1.998       .  S
O994        C995   1.267       .  A
O994      Cr1007   1.987       .  S
C995       C1073   1.484       .  S
O996       C1004   1.259       .  A
O996      Cr1005   1.983       .  S
O997        C998   1.269       .  A
O997      Cr1005   2.021       .  S
C998        O999   1.259       .  A
C998       C1233   1.477       .  S
O999      Cr1006   1.973       .  S
O1000      C1001   1.264       .  A
O1000     Cr1006   1.987       .  S
C1001      O1002   1.268       .  A
C1001      C1033   1.469       .  S
O1002     Cr1007   2.005       .  S
O1003      C1004   1.261       .  A
O1003     Cr1007   2.000       .  S
C1004      C1013   1.479       .  S
Cr1005     O1008   1.765       .  S
Cr1006     O1008   1.769       .  S
Cr1007     O1008   1.773       .  S
C1009      C1010   1.407       .  A
C1009      C1014   1.397   1_545  A
C1009      H1015   1.083       .  S
C1010      C1011   1.403       .  A
C1011      C1012   1.400   1_545  A
C1011      H1016   1.083       .  S
C1012      C1013   1.409       .  A
C1012      H1017   1.083       .  S
C1013      C1014   1.402       .  A
C1014      H1018   1.083       .  S
C1019      C1020   1.400       .  A
C1019      C1024   1.389       .  A
C1019      H1025   1.084       .  S
C1020      C1021   1.410       .  A
C1021      C1022   1.407       .  A
C1021      H1026   1.083       .  S
C1022      C1023   1.403       .  A
C1022      H1027   1.083       .  S
C1023      C1024   1.403       .  A
C1024      H1028   1.081       .  S
C1029      C1030   1.400       .  A
C1029      H1035   1.084       .  S
C1030      C1031   1.409       .  A
C1031      H1036   1.083       .  S
C1032      C1033   1.403       .  A
C1032      H1037   1.083       .  S
C1033      C1034   1.403       .  A
C1034      H1038   1.080       .  S
C1039      C1040   1.402       .  A
C1039      C1044   1.389       .  A
C1039      H1045   1.080       .  S
C1040      C1041   1.402       .  A
C1041      C1042   1.405       .  A
C1041      H1046   1.083       .  S
C1042      C1043   1.409       .  A
C1042      H1047   1.083       .  S
C1043      C1044   1.399       .  A
C1044      H1048   1.084       .  S
C1049      C1054   1.407       .  A
C1049      H1055   1.083       .  S
C1050      C1051   1.402       .  A
C1051      H1056   1.080       .  S
C1052      C1053   1.400       .  A
C1053      C1054   1.410       .  A
C1054      H1058   1.083       .  S
C1059      C1060   1.408       .  A
C1059      C1064   1.398       .  A
C1059      H1065   1.083       .  S
C1060      C1061   1.402       .  A
C1061      C1062   1.397       .  A
C1061      H1066   1.083       .  S
C1062      C1063   1.407       .  A
C1062      H1067   1.083       .  S
C1063      C1064   1.402       .  A
C1064      H1068   1.083       .  S
C1069      C1070   1.408       .  A
C1069      C1074   1.400       .  A
C1069      H1075   1.083       .  S
C1070      C1071   1.404       .  A
C1071      C1072   1.400       .  A
C1071      H1076   1.083       .  S
C1072      C1073   1.408       .  A
C1072      H1077   1.083       .  S
C1073      C1074   1.404       .  A
C1074      H1078   1.083       .  S
C1079      C1080   1.407       .  A
C1079      C1084   1.400       .  A
C1079      H1085   1.080       .  S
C1080      C1081   1.400       .  A
C1081      C1082   1.395       .  A
C1081      H1086   1.083       .  S
C1082      C1083   1.406       .  A
C1082      H1087   1.084       .  S
C1083      C1084   1.401       .  A
C1084      H1088   1.083       .  S
C1089      C1090   1.408       .  A
C1089      C1094   1.402       .  A
C1089      H1095   1.082       .  S
C1090      C1091   1.401       .  A
C1091      C1092   1.398       .  A
C1091      H1096   1.083       .  S
C1092      C1093   1.407       .  A
C1092      H1097   1.084       .  S
C1093      C1094   1.401       .  A
C1094      H1098   1.083       .  S
C1099      C1100   1.404   1_554  A
C1099      C1104   1.400   1_545  A
C1099      H1105   1.083       .  S
C1100      C1310   1.483       .  S
C1100      C1101   1.408       .  A
C1101      C1102   1.399   1_545  A
C1101      H1106   1.083       .  S
C1102      C1103   1.403   1_556  A
C1102      H1107   1.083       .  S
C1103      C1104   1.407       .  A
C1104      H1108   1.083       .  S
C1109      C1110   1.409       .  A
C1109      C1114   1.402       .  A
C1109      H1115   1.081       .  S
C1110      C1111   1.400       .  A
C1111      C1112   1.397       .  A
C1111      H1116   1.083       .  S
C1112      C1113   1.406       .  A
C1112      H1117   1.084       .  S
C1113      C1114   1.401       .  A
C1114      H1118   1.083       .  S
C1119      C1120   1.401       .  A
C1119      C1124   1.401       .  A
C1119      H1125   1.083       .  S
C1120      C1121   1.406       .  A
C1121      C1122   1.395       .  A
C1121      H1126   1.084       .  S
C1122      C1123   1.400       .  A
C1122      H1127   1.083       .  S
C1123      C1124   1.408       .  A
C1124      H1128   1.081       .  S
C1129      C1130   1.406       .  A
C1129      C1134   1.404       .  A
C1129      H1135   1.083       .  S
C1130      C1131   1.408       .  A
C1131      C1132   1.402       .  A
C1131      H1136   1.083       .  S
C1132      C1133   1.405       .  A
C1132      H1137   1.083       .  S
C1133      C1134   1.409       .  A
C1134      H1138   1.083       .  S
C1139      C1144   1.407       .  A
C1139      H1145   1.083       .  S
C1141      C1142   1.389       .  A
C1142      C1559   1.403   1_554  A
C1142      H1147   1.080       .  S
C1143      C1558   1.403       .  A
C1143      C1144   1.403       .  A
C1144      H1148   1.083       .  S
C1149      C1150   1.403       .  A
C1149      C1154   1.407       .  A
C1149      H1155   1.083       .  S
C1150      C1151   1.403   1_554  A
C1151      C1568   1.389       .  A
C1151      H1156   1.081       .  S
C1152      C1567   1.389       .  A
C1152      C1153   1.400       .  A
C1152      H1157   1.084       .  S
C1153      C1570   1.410       .  A
C1154      C1569   1.410   1_554  A
C1154      H1158   1.083       .  S
C1159      C1164   1.401       .  A
C1159      H1165   1.083       .  S
C1160      C1161   1.405       .  A
C1161      H1166   1.083       .  S
C1162      C1163   1.408       .  A
C1163      C1164   1.404       .  A
C1164      H1168   1.083       .  S
C1169      C1170   1.407       .  A
C1169      C1174   1.397       .  A
C1169      H1175   1.084       .  S
C1170      C1171   1.400       .  A
C1171      C1172   1.400       .  A
C1171      H1176   1.083       .  S
C1172      C1173   1.407       .  A
C1172      H1177   1.081       .  S
C1173      C1174   1.401       .  A
C1174      H1178   1.083       .  S
C1179      C1180   1.400       .  A
C1179      C1184   1.396       .  A
C1179      H1185   1.084       .  S
C1180      C1181   1.407       .  A
C1181      C1182   1.399       .  A
C1181      H1186   1.082       .  S
C1182      C1183   1.400       .  A
C1182      H1187   1.083       .  S
C1183      C1184   1.407       .  A
C1184      H1188   1.084       .  S
C1189      C1194   1.402       .  A
C1189      H1195   1.083       .  S
C1190      C1191   1.405       .  A
C1191      H1196   1.083       .  S
C1192      C1193   1.409       .  A
C1193      C1194   1.405       .  A
C1194      H1198   1.083       .  S
C1199      C1204   1.405       .  A
C1201      C1202   1.390       .  A
C1201      H1206   1.084       .  S
C1202      C1619   1.402       .  A
C1202      H1207   1.080       .  S
C1203      C1618   1.402   1_554  A
C1203      C1204   1.402       .  A
C1204      H1208   1.083       .  S
C1209      C1626   1.403   1_554  A
C1209      C1214   1.391       .  A
C1209      H1215   1.081       .  S
C1210      C1625   1.403       .  A
C1210      C1211   1.404       .  A
C1211      C1212   1.409       .  A
C1211      H1216   1.083       .  S
C1212      C1629   1.410       .  A
C1212      H1217   1.083       .  S
C1213      C1628   1.410   1_554  A
C1213      C1214   1.401       .  A
C1214      H1218   1.084       .  S
C1219      C1220   1.403   1_554  A
C1219      C1224   1.398       .  A
C1219      H1225   1.083       .  S
C1220      C1266   1.480       .  S
C1220      C1637   1.408       .  A
C1221      C1636   1.408       .  A
C1221      C1222   1.400       .  A
C1221      H1226   1.083       .  S
C1222      C1639   1.403       .  A
C1222      H1227   1.083       .  S
C1223      C1638   1.403   1_554  A
C1223      C1224   1.408       .  A
C1224      H1228   1.083       .  S
C1229      C1230   1.401       .  A
C1229      C1234   1.402       .  A
C1229      H1235   1.083       .  S
C1230      C1231   1.407       .  A
C1231      C1232   1.398       .  A
C1231      H1236   1.084       .  S
C1232      C1233   1.401       .  A
C1232      H1237   1.083       .  S
C1233      C1234   1.408       .  A
C1234      H1238   1.081       .  S
C1239      C1240   1.407       .  A
C1239      C1244   1.400       .  A
C1239      H1245   1.081       .  S
C1240      C1241   1.401       .  A
C1241      C1242   1.397       .  A
C1241      H1246   1.083       .  S
C1242      C1243   1.407       .  A
C1242      H1247   1.084       .  S
C1243      C1244   1.400       .  A
C1244      H1248   1.083       .  S
O1249      C1257   1.270       .  A
O1250      C1251   1.257       .  A
C1251      O1252   1.261       .  A
C1251      C1616   1.474       .  S
O1252     Cr1268   2.012       .  S
O1253      C1254   1.265       .  A
O1253     Cr1268   1.999       .  S
C1254      O1255   1.264       .  A
C1254      C1646   1.474       .  S
O1255     Cr1269   2.001       .  S
O1256      C1257   1.268       .  A
O1256     Cr1269   1.993       .  S
C1257      C1606   1.490       .  S
O1258     Cr1267   1.984       .  S
O1259      C1260   1.269       .  A
O1259     Cr1267   2.021       .  S
C1260      O1261   1.259       .  A
C1260      C1656   1.475       .  S
O1262      C1263   1.264       .  A
O1262     Cr1268   1.991       .  S
C1263      O1264   1.268       .  A
C1263      C1626   1.474       .  S
O1264     Cr1269   2.010       .  S
O1265      C1266   1.262       .  A
O1265     Cr1269   2.004       .  S
Cr1268     O1270   1.769       .  S
Cr1269     O1270   1.772       .  S
O1271      C1279   1.270       .  A
O1271     Cr1289   2.010       .  S
O1272      C1273   1.257       .  A
O1272     Cr1289   1.971       .  S
C1273      O1274   1.262       .  A
C1273      C1556   1.478   1_655  S
O1274     Cr1290   2.014       .  S
O1275      C1276   1.265       .  A
O1275     Cr1290   1.997       .  S
C1276      O1277   1.263       .  A
C1276      C1586   1.471       .  S
O1277     Cr1291   1.999       .  S
O1278      C1279   1.268       .  A
O1278     Cr1291   1.990       .  S
C1279      C1576   1.487       .  S
O1280      C1288   1.260       .  A
O1280     Cr1289   1.988       .  S
O1281      C1282   1.268       .  A
C1282      O1283   1.258       .  A
C1282      C1596   1.471       .  S
O1284      C1285   1.264       .  A
O1284     Cr1290   1.989       .  S
C1285      O1286   1.267       .  A
C1285      C1566   1.470       .  S
O1286     Cr1291   2.006       .  S
O1287      C1288   1.261       .  A
O1287     Cr1291   1.999       .  S
C1288      C1639   1.481       .  S
Cr1289     O1292   1.765       .  S
Cr1290     O1292   1.768       .  S
Cr1291     O1292   1.772       .  S
O1293      C1301   1.271       .  A
O1294      C1295   1.257       .  A
C1295      O1296   1.261       .  A
C1295      C1569   1.478       .  S
O1296     Cr1312   2.013       .  S
O1297      C1298   1.265       .  A
O1297     Cr1312   1.996       .  S
C1298      O1299   1.265       .  A
C1298      C1536   1.471       .  S
O1299     Cr1313   2.000       .  S
O1300      C1301   1.268       .  A
O1300     Cr1313   1.991       .  S
C1301      C1546   1.491       .  S
O1302     Cr1311   1.985       .  S
O1303      C1304   1.270       .  A
O1303     Cr1311   2.023       .  S
C1304      O1305   1.258       .  A
C1304      C1526   1.476       .  S
O1306      C1307   1.263       .  A
O1306     Cr1312   1.988       .  S
C1307      O1308   1.267       .  A
C1307      C1559   1.471       .  S
O1308     Cr1313   2.009       .  S
O1309      C1310   1.262       .  A
O1309     Cr1313   2.003       .  S
Cr1312     O1314   1.770       .  S
Cr1313     O1314   1.772       .  S
O1315      C1323   1.269       .  A
O1315     Cr1333   2.008       .  S
O1316      C1317   1.257       .  A
O1316     Cr1333   1.971       .  S
C1317      O1318   1.263       .  A
C1317      C1629   1.480       .  S
O1318     Cr1334   2.021       .  S
O1319      C1320   1.266       .  A
O1319     Cr1334   2.001       .  S
C1320      O1321   1.264       .  A
C1320      C1509   1.475       .  S
O1321     Cr1335   2.002       .  S
O1322      C1323   1.267       .  A
O1322     Cr1335   1.987       .  S
C1323      C1486   1.484       .  S
O1324      C1332   1.259       .  A
O1324     Cr1333   1.985       .  S
O1325      C1326   1.268       .  A
C1326      O1327   1.259       .  A
C1326      C1496   1.472       .  S
O1328      C1329   1.264       .  A
O1328     Cr1334   1.990       .  S
C1329      O1330   1.267       .  A
C1329      C1619   1.468       .  S
O1330     Cr1335   2.003       .  S
O1331      C1332   1.262       .  A
O1331     Cr1335   2.005       .  S
C1332      C1519   1.481       .  S
Cr1333     O1336   1.764       .  S
Cr1334     O1336   1.769       .  S
Cr1335     O1336   1.773       .  S
O1337      C1345   1.270       .  A
O1337     Cr1355   2.010       .  S
O1338      C1339   1.257       .  A
O1338     Cr1355   1.968       .  S
C1339      O1340   1.262       .  A
C1339      C1469   1.476       .  S
O1340     Cr1356   2.014       .  S
O1341      C1342   1.266       .  A
O1341     Cr1356   2.000       .  S
C1342      O1343   1.264       .  A
C1342      C1529   1.473       .  S
O1343     Cr1357   1.998       .  S
O1344      C1345   1.267       .  A
O1344     Cr1357   1.987       .  S
C1345      C1579   1.485       .  S
O1346      C1354   1.258       .  A
O1346     Cr1355   1.982       .  S
O1347      C1348   1.269       .  A
O1347     Cr1355   2.017       .  S
C1348      O1349   1.259       .  A
C1348      C1539   1.474       .  S
O1349     Cr1356   1.973       .  S
O1350      C1351   1.264       .  A
O1350     Cr1356   1.988       .  S
C1351      O1352   1.266       .  A
C1351      C1456   1.468       .  S
O1352     Cr1357   2.003       .  S
O1353      C1354   1.260       .  A
O1353     Cr1357   1.998       .  S
C1354      C1476   1.477       .  S
Cr1355     O1358   1.763       .  S
Cr1356     O1358   1.769       .  S
Cr1357     O1358   1.772       .  S
O1359      C1367   1.271       .  A
O1359     Cr1377   2.014       .  S
O1360      C1361   1.257       .  A
O1360     Cr1377   1.969       .  S
C1361      O1362   1.262       .  A
C1361      C1446   1.475       .  S
O1362     Cr1378   2.011       .  S
O1363      C1364   1.265       .  A
O1363     Cr1378   1.997       .  S
C1364      O1365   1.263       .  A
C1364      C1499   1.470       .  S
O1365     Cr1379   1.996       .  S
O1366      C1367   1.268       .  A
O1366     Cr1379   1.990       .  S
C1367      C1609   1.489       .  S
O1368      C1376   1.259       .  A
O1368     Cr1377   1.985       .  S
O1369      C1370   1.269       .  A
O1369     Cr1377   2.022       .  S
C1370      O1371   1.259       .  A
C1370      C1506   1.477       .  S
O1371     Cr1378   1.973       .  S
O1372      C1373   1.264       .  A
O1372     Cr1378   1.987       .  S
C1373      O1374   1.267       .  A
C1373      C1439   1.470       .  S
O1374     Cr1379   2.007       .  S
O1375      C1376   1.260       .  A
O1375     Cr1379   1.995       .  S
C1376      C1479   1.477       .  S
Cr1377     O1380   1.764       .  S
Cr1378     O1380   1.768       .  S
Cr1379     O1380   1.773       .  S
O1381      C1389   1.271       .  A
O1381     Cr1399   2.013       .  S
O1382      C1383   1.256       .  A
O1382     Cr1399   1.968       .  S
C1383      O1384   1.261       .  A
C1383      C1459   1.473       .  S
O1384     Cr1400   2.010       .  S
O1385      C1386   1.265       .  A
O1385     Cr1400   1.996       .  S
C1386      O1387   1.264       .  A
C1386      C1599   1.470       .  S
O1387     Cr1401   1.998       .  S
O1388      C1389   1.268       .  A
O1388     Cr1401   1.990       .  S
C1389      C1549   1.489       .  S
O1390      C1398   1.259       .  A
O1390     Cr1399   1.986       .  S
O1391      C1392   1.269       .  A
O1391     Cr1399   2.020       .  S
C1392      O1393   1.259       .  A
C1392      C1589   1.475       .  S
O1393     Cr1400   1.971       .  S
O1394      C1395   1.263       .  A
O1394     Cr1400   1.988       .  S
C1395      O1396   1.268       .  A
C1395      C1466   1.470       .  S
O1396     Cr1401   2.007       .  S
O1397      C1398   1.261       .  A
O1397     Cr1401   1.998       .  S
C1398      C1426   1.478       .  S
Cr1399     O1402   1.766       .  S
Cr1400     O1402   1.769       .  S
Cr1401     O1402   1.771       .  S
O1403      C1411   1.270       .  A
O1403     Cr1421   2.009       .  S
O1404      C1405   1.256       .  A
O1404     Cr1421   1.968       .  S
C1405      O1406   1.262       .  A
C1405      C1436   1.477       .  S
O1406     Cr1422   2.013       .  S
O1407      C1408   1.265       .  A
O1407     Cr1422   1.999       .  S
C1408      O1409   1.263       .  A
C1408      C1659   1.472       .  S
O1409     Cr1423   1.998       .  S
O1410      C1411   1.267       .  A
O1410     Cr1423   1.987       .  S
C1411      C1489   1.484       .  S
O1412      C1420   1.259       .  A
O1412     Cr1421   1.983       .  S
O1413      C1414   1.269       .  A
O1413     Cr1421   2.021       .  S
C1414      O1415   1.259       .  A
C1414      C1649   1.477       .  S
O1415     Cr1422   1.973       .  S
O1416      C1417   1.264       .  A
O1416     Cr1422   1.987       .  S
C1417      O1418   1.268       .  A
C1417      C1449   1.469       .  S
O1418     Cr1423   2.005       .  S
O1419      C1420   1.261       .  A
O1419     Cr1423   2.000       .  S
C1420      C1429   1.479       .  S
Cr1421     O1424   1.765       .  S
Cr1422     O1424   1.769       .  S
Cr1423     O1424   1.773       .  S
C1425      C1426   1.407       .  A
C1425      C1430   1.397   1_545  A
C1425      H1431   1.083       .  S
C1426      C1427   1.403       .  A
C1427      C1428   1.400   1_545  A
C1427      H1432   1.083       .  S
C1428      C1429   1.409       .  A
C1428      H1433   1.083       .  S
C1429      C1430   1.402       .  A
C1430      H1434   1.083       .  S
C1435      C1436   1.400       .  A
C1435      C1440   1.389       .  A
C1435      H1441   1.084       .  S
C1436      C1437   1.410       .  A
C1437      C1438   1.407       .  A
C1437      H1442   1.083       .  S
C1438      C1439   1.403       .  A
C1438      H1443   1.083       .  S
C1439      C1440   1.403       .  A
C1440      H1444   1.081       .  S
C1445      C1446   1.400       .  A
C1445      H1451   1.084       .  S
C1446      C1447   1.409       .  A
C1447      H1452   1.083       .  S
C1448      C1449   1.403       .  A
C1448      H1453   1.083       .  S
C1449      C1450   1.403       .  A
C1450      H1454   1.080       .  S
C1455      C1456   1.402       .  A
C1455      C1460   1.389       .  A
C1455      H1461   1.080       .  S
C1456      C1457   1.402       .  A
C1457      C1458   1.405       .  A
C1457      H1462   1.083       .  S
C1458      C1459   1.409       .  A
C1458      H1463   1.083       .  S
C1459      C1460   1.399       .  A
C1460      H1464   1.084       .  S
C1465      C1470   1.407       .  A
C1465      H1471   1.083       .  S
C1466      C1467   1.402       .  A
C1467      H1472   1.080       .  S
C1468      C1469   1.400       .  A
C1469      C1470   1.410       .  A
C1470      H1474   1.083       .  S
C1475      C1476   1.408       .  A
C1475      C1480   1.398       .  A
C1475      H1481   1.083       .  S
C1476      C1477   1.402       .  A
C1477      C1478   1.397       .  A
C1477      H1482   1.083       .  S
C1478      C1479   1.407       .  A
C1478      H1483   1.083       .  S
C1479      C1480   1.402       .  A
C1480      H1484   1.083       .  S
C1485      C1486   1.408       .  A
C1485      C1490   1.400       .  A
C1485      H1491   1.083       .  S
C1486      C1487   1.404       .  A
C1487      C1488   1.400       .  A
C1487      H1492   1.083       .  S
C1488      C1489   1.408       .  A
C1488      H1493   1.083       .  S
C1489      C1490   1.404       .  A
C1490      H1494   1.083       .  S
C1495      C1496   1.407       .  A
C1495      C1500   1.400       .  A
C1495      H1501   1.080       .  S
C1496      C1497   1.400       .  A
C1497      C1498   1.395       .  A
C1497      H1502   1.083       .  S
C1498      C1499   1.406       .  A
C1498      H1503   1.084       .  S
C1499      C1500   1.401       .  A
C1500      H1504   1.083       .  S
C1505      C1506   1.408       .  A
C1505      C1510   1.402       .  A
C1505      H1511   1.082       .  S
C1506      C1507   1.401       .  A
C1507      C1508   1.398       .  A
C1507      H1512   1.083       .  S
C1508      C1509   1.407       .  A
C1508      H1513   1.084       .  S
C1509      C1510   1.401       .  A
C1510      H1514   1.083       .  S
C1515      C1516   1.404       .  A
C1515      C1520   1.400   1_545  A
C1515      H1521   1.083       .  S
C1516      C1517   1.408       .  A
C1517      C1518   1.399   1_545  A
C1517      H1522   1.083       .  S
C1518      C1519   1.403       .  A
C1518      H1523   1.083       .  S
C1519      C1520   1.407       .  A
C1520      H1524   1.083       .  S
C1525      C1526   1.409       .  A
C1525      C1530   1.402       .  A
C1525      H1531   1.081       .  S
C1526      C1527   1.400       .  A
C1527      C1528   1.397       .  A
C1527      H1532   1.083       .  S
C1528      C1529   1.406       .  A
C1528      H1533   1.084       .  S
C1529      C1530   1.401       .  A
C1530      H1534   1.083       .  S
C1535      C1536   1.401       .  A
C1535      C1540   1.401       .  A
C1535      H1541   1.083       .  S
C1536      C1537   1.406       .  A
C1537      C1538   1.395       .  A
C1537      H1542   1.084       .  S
C1538      C1539   1.400       .  A
C1538      H1543   1.083       .  S
C1539      C1540   1.408       .  A
C1540      H1544   1.081       .  S
C1545      C1546   1.406       .  A
C1545      C1550   1.404       .  A
C1545      H1551   1.083       .  S
C1546      C1547   1.408       .  A
C1547      C1548   1.402       .  A
C1547      H1552   1.083       .  S
C1548      C1549   1.405       .  A
C1548      H1553   1.083       .  S
C1549      C1550   1.409       .  A
C1550      H1554   1.083       .  S
C1555      C1560   1.407       .  A
C1555      H1561   1.083       .  S
C1557      C1558   1.389       .  A
C1558      H1563   1.080       .  S
C1559      C1560   1.403       .  A
C1560      H1564   1.083       .  S
C1565      C1566   1.403       .  A
C1565      C1570   1.407       .  A
C1565      H1571   1.083       .  S
C1566      C1567   1.403       .  A
C1567      H1572   1.081       .  S
C1568      C1569   1.400       .  A
C1568      H1573   1.084       .  S
C1570      H1574   1.083       .  S
C1575      C1580   1.401       .  A
C1575      H1581   1.083       .  S
C1576      C1577   1.405       .  A
C1577      H1582   1.083       .  S
C1578      C1579   1.408       .  A
C1579      C1580   1.404       .  A
C1580      H1584   1.083       .  S
C1585      C1586   1.407       .  A
C1585      C1590   1.397       .  A
C1585      H1591   1.084       .  S
C1586      C1587   1.400       .  A
C1587      C1588   1.400       .  A
C1587      H1592   1.083       .  S
C1588      C1589   1.407       .  A
C1588      H1593   1.081       .  S
C1589      C1590   1.401       .  A
C1590      H1594   1.083       .  S
C1595      C1596   1.400       .  A
C1595      C1600   1.396       .  A
C1595      H1601   1.084       .  S
C1596      C1597   1.407       .  A
C1597      C1598   1.399       .  A
C1597      H1602   1.082       .  S
C1598      C1599   1.400       .  A
C1598      H1603   1.083       .  S
C1599      C1600   1.407       .  A
C1600      H1604   1.084       .  S
C1605      C1610   1.402       .  A
C1605      H1611   1.083       .  S
C1606      C1607   1.405       .  A
C1607      H1612   1.083       .  S
C1608      C1609   1.409       .  A
C1609      C1610   1.405       .  A
C1610      H1614   1.083       .  S
C1615      C1620   1.405       .  A
C1617      C1618   1.390       .  A
C1617      H1622   1.084       .  S
C1618      H1623   1.080       .  S
C1619      C1620   1.402       .  A
C1620      H1624   1.083       .  S
C1625      C1630   1.391       .  A
C1625      H1631   1.081       .  S
C1626      C1627   1.404       .  A
C1627      C1628   1.409       .  A
C1627      H1632   1.083       .  S
C1628      H1633   1.083       .  S
C1629      C1630   1.401       .  A
C1630      H1634   1.084       .  S
C1635      C1636   1.403       .  A
C1635      C1640   1.398       .  A
C1635      H1641   1.083       .  S
C1637      C1638   1.400       .  A
C1637      H1642   1.083       .  S
C1638      H1643   1.083       .  S
C1639      C1640   1.408       .  A
C1640      H1644   1.083       .  S
C1645      C1646   1.401       .  A
C1645      C1650   1.402       .  A
C1645      H1651   1.083       .  S
C1646      C1647   1.407       .  A
C1647      C1648   1.398       .  A
C1647      H1652   1.084       .  S
C1648      C1649   1.401       .  A
C1648      H1653   1.083       .  S
C1649      C1650   1.408       .  A
C1650      H1654   1.081       .  S
C1655      C1656   1.407       .  A
C1655      C1660   1.400       .  A
C1655      H1661   1.081       .  S
C1656      C1657   1.401       .  A
C1657      C1658   1.397       .  A
C1657      H1662   1.083       .  S
C1658      C1659   1.407       .  A
C1658      H1663   1.084       .  S
C1659      C1660   1.400       .  A
C1660      H1664   1.083       .  S
