geometry optimzed in LAMMPS
_audit_creation_date              2020-12-01 
_audit_creation_method            'lammps2cif' 
_symmetry_space_group_name_H-M    'P1' 
_symmetry_Int_Tables_number       1 
_symmetry_cell_setting            triclinic 
loop_ 
_symmetry_equiv_pos_as_xyz 
  x,y,z 
_cell_length_a                    26.6482177 
_cell_length_b                    29.50535653363865 
_cell_length_c                    48.64693877625305 
_cell_angle_alpha                 89.88856248881524 
_cell_angle_beta                  89.94223932457034 
_cell_angle_gamma                 89.86429968754601 
loop_ 
_atom_site_label 
_atom_site_type_symbol 
_atom_site_fract_x 
_atom_site_fract_y 
_atom_site_fract_z 
_atom_site_charge 
Fe1        Fe  0.08201380  0.16487681  0.89368839     1.65800
Fe2        Fe  0.19009696  0.21835447  0.87989925     1.73200
Fe3        Fe  0.12174199  0.24663932  0.93539156     1.54400
O4          O  0.05472070  0.26942156  0.92041464    -0.81800
O5          O  0.23762686  0.22956671  0.91432052    -0.80100
O6          O  0.02198740  0.20240948  0.91110968    -0.84300
O7          O  0.09458855  0.13324539  0.93012609    -0.79100
O8          O  0.15719128  0.30425705  0.91859506    -0.80900
O9          O  0.20818693  0.15139521  0.88300275    -0.83700
C10         C  0.08243443  0.15076816  0.95281075     0.97100
C11         C  0.01723670  0.24321545  0.91954288     1.04500
O12         O  0.13157763  0.21022891  0.90283069    -1.12600
O13         O  0.14798784  0.20841492  0.84322446    -0.75100
O14         O  0.06909316  0.19542775  0.85686851    -0.78600
O15         O  0.08513585  0.19348125  0.95703438    -0.79200
C16         C  0.10074309  0.20548383  0.83837720     0.96000
O17         O  0.13407872  0.11941532  0.87643883    -0.77200
O18         O  0.17702235  0.28617440  0.87567141    -0.82400
C19         C  0.23153313  0.22735808  0.94047445     0.98600
C20         C  0.17360779  0.31505201  0.89479516     1.04600
O21         O  0.18827023  0.22525251  0.95129556    -0.78000
C22         C  0.18168772  0.11673372  0.87856913     1.02900
Fe23       Fe  0.93777333  0.85813864  0.10343076     1.65800
Fe24       Fe  0.83204372  0.80248363  0.11972554     1.73200
Fe25       Fe  0.88334968  0.78973948  0.05750437     1.54400
O26         O  0.91322872  0.84799166  0.03761810    -0.81800
O27         O  0.84884431  0.73494640  0.11847159    -0.80100
O28         O  0.92079272  0.89846936  0.07114801    -0.84300
O29         O  0.99228802  0.82322604  0.07983100    -0.79100
O30         O  0.81340492  0.81548141  0.05056482    -0.80900
O31         O  0.88027682  0.80899761  0.15427231    -0.83700
C32         C  0.99264099  0.78611568  0.06621263     0.97100
C33         C  0.92045702  0.88852781  0.04597142     1.04500
O34         O  0.88517169  0.81595740  0.09376619    -1.12600
O35         O  0.81341706  0.86977198  0.12001827    -0.75100
O36         O  0.88895932  0.89961198  0.12604775    -0.78600
O37         O  0.95321419  0.76313949  0.06250891    -0.79200
C38         C  0.84162070  0.90399909  0.12304811     0.96000
O39         O  0.95692410  0.82116632  0.13749225    -0.77200
O40         O  0.77639836  0.79258224  0.08890314    -0.82400
C41         C  0.84630808  0.71105919  0.09681827     0.98600
C42         C  0.77453852  0.80289913  0.06335891     1.04600
O43         O  0.85336917  0.72822780  0.07288179    -0.78000
C44         C  0.92791862  0.81184704  0.15739496     1.02900
Fe45       Fe  0.43268225  0.66300929  0.89350477     1.65800
Fe46       Fe  0.32986411  0.72190396  0.87695194     1.73200
Fe47       Fe  0.37850759  0.72969412  0.94022714     1.54400
O48         O  0.40433568  0.66880334  0.95873311    -0.81800
O49         O  0.34813874  0.78856398  0.88027473    -0.80100
O50         O  0.41024465  0.62144159  0.92360717    -0.84300
O51         O  0.48699427  0.69333550  0.91960036    -0.79100
O52         O  0.30813543  0.70538685  0.94566811    -0.80900
O53         O  0.38074018  0.71706193  0.84326785    -0.83700
C54         C  0.48838005  0.72986817  0.93377497     0.97100
C55         C  0.40818708  0.62867594  0.94903139     1.04500
O56         O  0.38105650  0.70583321  0.90338235    -1.12600
O57         O  0.30931689  0.65536322  0.87407784    -0.75100
O58         O  0.38465813  0.62500832  0.86815749    -0.78600
O59         O  0.44972574  0.75430055  0.93699361    -0.79200
C60         C  0.33698522  0.62118792  0.86957669     0.96000
O61         O  0.45574088  0.70261814  0.86163408    -0.77200
O62         O  0.27262533  0.72995105  0.90719972    -0.82400
C63         C  0.34483238  0.81127675  0.90230734     0.98600
C64         C  0.26976580  0.71757173  0.93239412     1.04600
O65         O  0.35080528  0.79301877  0.92604063    -0.78000
C66         C  0.42864375  0.71371005  0.84130890     1.02900
Fe67       Fe  0.58463078  0.35836537  0.09891945     1.65800
Fe68       Fe  0.69123058  0.30322769  0.11330575     1.73200
Fe69       Fe  0.63027054  0.28389315  0.05411290     1.54400
O70         O  0.56235777  0.25704088  0.06475034    -0.81800
O71         O  0.74220892  0.29536612  0.07972424    -0.80100
O72         O  0.52753808  0.32162864  0.07848262    -0.84300
O73         O  0.60104351  0.39407223  0.06454485    -0.79100
O74         O  0.66723099  0.22501604  0.06840989    -0.80900
O75         O  0.70964894  0.37062447  0.11383187    -0.83700
C76         C  0.58880982  0.37996902  0.04112689     0.97100
C77         C  0.52408873  0.28235438  0.06745809     1.04500
O78         O  0.63509420  0.31440962  0.08920522    -1.12600
O79         O  0.64540653  0.30899323  0.14928415    -0.75100
O80         O  0.56805756  0.32446457  0.13428543    -0.78600
O81         O  0.59287850  0.33828428  0.03464752    -0.79200
C82         C  0.59785293  0.31269210  0.15333071     0.96000
O83         O  0.63450993  0.40216241  0.11891006    -0.77200
O84         O  0.67709123  0.23527307  0.11326113    -0.82400
C85         C  0.73872655  0.30329168  0.05381472     0.98600
C86         C  0.67971061  0.21024680  0.09215284     1.04600
O87         O  0.69692198  0.31086847  0.04233009    -0.78000
C88         C  0.68219950  0.40507789  0.11780599     1.02900
Fe89       Fe  0.94403309  0.17232333  0.59752567     1.65800
Fe90       Fe  0.83542041  0.22174903  0.61494252     1.73200
Fe91       Fe  0.89243687  0.24851960  0.55543851     1.54400
O92         O  0.96048496  0.27605236  0.56528451    -0.81800
O93         O  0.78214603  0.23065295  0.58296567    -0.80100
O94         O  0.99866885  0.21203541  0.57713084    -0.84300
O95         O  0.92865968  0.13798830  0.56243091    -0.79100
O96         O  0.85565810  0.30524577  0.57270938    -0.80900
O97         O  0.82027583  0.15401217  0.61349004    -0.83700
C98         C  0.93551307  0.15421394  0.53874609     0.97100
C99         C  0.99991086  0.25200880  0.56690485     1.04500
O100        O  0.89078683  0.21472855  0.58955933    -1.12600
O101        O  0.88242348  0.21397989  0.64979198    -0.75100
O102        O  0.96005269  0.20488545  0.63342928    -0.78600
O103        O  0.92904516  0.19620261  0.53342869    -0.79200
C104        C  0.93011089  0.21270990  0.65315934     0.96000
O105        O  0.89710427  0.12553252  0.61738002    -0.77200
O106        O  0.84689583  0.28992027  0.61723899    -0.82400
C107        C  0.78419301  0.22454912  0.55692214     0.98600
C108        C  0.84419426  0.31721042  0.59718542     1.04600
O109        O  0.82540917  0.22161923  0.54407020    -0.78000
C110        C  0.84957119  0.12068350  0.61693940     1.02900
Fe111      Fe  0.09000241  0.85994448  0.39681103     1.65800
Fe112      Fe  0.19548143  0.80552074  0.37995041     1.73200
Fe113      Fe  0.14671788  0.79361135  0.44322539     1.54400
O114        O  0.11568238  0.85183926  0.46235538    -0.81800
O115        O  0.18096995  0.73775745  0.38325605    -0.80100
O116        O  0.10868073  0.90139559  0.42811506    -0.84300
O117        O  0.03738738  0.82603546  0.42178070    -0.79100
O118        O  0.21633427  0.82021786  0.44931484    -0.80900
O119        O  0.14510209  0.80873861  0.34619887    -0.83700
C120        C  0.03752804  0.78888334  0.43532517     0.97100
C121        C  0.10859389  0.89210653  0.45343120     1.04500
O122        O  0.14371678  0.81906312  0.40657054    -1.12600
O123        O  0.21269908  0.87312694  0.37694089    -0.75100
O124        O  0.13594010  0.90115678  0.37217604    -0.78600
O125        O  0.07720038  0.76595764  0.43886646    -0.79200
C126        C  0.18344681  0.90639153  0.37265041     0.96000
O127        O  0.06955353  0.82033860  0.36426028    -0.77200
O128        O  0.25228032  0.79945870  0.41004297    -0.82400
C129        C  0.18470802  0.71466651  0.40521372     0.98600
C130        C  0.25499398  0.81015150  0.43544867     1.04600
O131        O  0.17811932  0.73227111  0.42897015    -0.78000
C132        C  0.09719017  0.80992810  0.34399037     1.02900
Fe133      Fe  0.59044296  0.67089167  0.60283448     1.65800
Fe134      Fe  0.69773200  0.72137240  0.62068690     1.73200
Fe135      Fe  0.65217048  0.73440855  0.55708514     1.54400
O136        O  0.62163994  0.67628661  0.53744896    -0.81800
O137        O  0.68502929  0.78935489  0.61809805    -0.80100
O138        O  0.60788113  0.62810939  0.57179937    -0.84300
O139        O  0.54030894  0.70665561  0.57708673    -0.79100
O140        O  0.72036119  0.70478281  0.55260840    -0.80900
O141        O  0.64684729  0.71818547  0.65402825    -0.83700
C142        C  0.54277629  0.74269715  0.56247169     0.97100
C143        C  0.61247940  0.63636552  0.54646859     1.04500
O144        O  0.64605259  0.70977961  0.59365530    -1.12600
O145        O  0.71234542  0.65356821  0.62267499    -0.75100
O146        O  0.63447174  0.62813449  0.62757398    -0.78600
O147        O  0.58340572  0.76421470  0.55945014    -0.79200
C148        C  0.68179952  0.62136865  0.62666405     0.96000
O149        O  0.57117175  0.71142875  0.63542345    -0.77200
O150        O  0.75592089  0.72738192  0.59131207    -0.82400
C151        C  0.69052713  0.81265454  0.59633573     0.98600
C152        C  0.75883021  0.71552033  0.56614623     1.04600
O153        O  0.68424850  0.79535393  0.57237513    -0.78000
C154        C  0.59896008  0.71960596  0.65598581     1.02900
Fe155      Fe  0.44502061  0.35848836  0.39440875     1.65800
Fe156      Fe  0.33506602  0.30920846  0.37994540     1.73200
Fe157      Fe  0.39555437  0.28369745  0.43842250     1.54400
O158        O  0.46266764  0.25535456  0.42723232    -0.81800
O159        O  0.28424348  0.30150683  0.41312366    -0.80100
O160        O  0.50050777  0.31862088  0.41378280    -0.84300
O161        O  0.43421191  0.39395208  0.42971945    -0.79100
O162        O  0.35653438  0.22649539  0.42224838    -0.80900
O163        O  0.32032603  0.37646603  0.38184563    -0.83700
C164        C  0.44242540  0.37810045  0.45340658     0.97100
C165        C  0.50193007  0.27931185  0.42491706     1.04500
O166        O  0.39210235  0.31666418  0.40406263    -1.12600
O167        O  0.37916920  0.31604769  0.34378585    -0.75100
O168        O  0.45792953  0.32478024  0.35830282    -0.78600
O169        O  0.43476946  0.33635657  0.45921644    -0.79200
C170        C  0.42659612  0.31636932  0.33940045     0.96000
O171        O  0.39615942  0.40560258  0.37589565    -0.77200
O172        O  0.34594094  0.24106677  0.37782201    -0.82400
C173        C  0.28748144  0.30862676  0.43902474     0.98600
C174        C  0.34291305  0.21422881  0.39808253     1.04600
O175        O  0.32940317  0.31192860  0.45112328    -0.78000
C176        C  0.34876932  0.41022570  0.37855163     1.02900
C177        C  0.47322071  0.48689362  0.48961444    -0.27700
C178        C  0.52485851  0.48121086  0.49472682     0.01900
C179        C  0.54604809  0.43759026  0.49084014     0.30000
C180        C  0.51662822  0.40205999  0.48043028    -0.19500
C181        C  0.46633271  0.40932678  0.47310885    -0.28900
C182        C  0.44444641  0.45184474  0.47840806     0.44000
C183        C  0.55544216  0.52094903  0.50414234     0.05200
O184        O  0.59601881  0.42974809  0.49567243    -0.57400
H185        H  0.53434386  0.36982239  0.47593609     0.18100
O186        O  0.39559188  0.46032674  0.47114304    -0.64100
H187        H  0.45516094  0.51910764  0.49361738     0.16600
C188        C  0.54880543  0.56482932  0.49270483     0.28800
C189        C  0.57201122  0.60272733  0.50479584    -0.25000
C190        C  0.60272651  0.59749826  0.52794103    -0.24300
C191        C  0.61443100  0.55322621  0.53699036     0.40300
C192        C  0.58988999  0.51575592  0.52575472    -0.26800
O193        O  0.51958539  0.57097402  0.46976482    -0.58700
H194        H  0.56321380  0.63635670  0.49718998     0.15900
O195        O  0.64738196  0.54648746  0.55825554    -0.60100
H196        H  0.59620363  0.48287554  0.53504021     0.14400
H197        H  0.37509281  0.44727341  0.48621292     0.46200
H198        H  0.49047487  0.58943226  0.47585567     0.41600
H199        H  0.68056880  0.54209663  0.54939708     0.45100
H200        H  0.61304592  0.43596376  0.47793522     0.36500
C201        C  0.94905724  0.71651614  0.47734542    -0.27700
C202        C  0.91803121  0.74960300  0.48927179     0.01900
C203        C  0.92259949  0.79502055  0.48042570     0.30000
C204        C  0.95934167  0.80693280  0.46112944    -0.19500
C205        C  0.99191383  0.77408403  0.45019813    -0.28900
C206        C  0.98534969  0.72831982  0.45784001     0.44000
C207        C  0.88155065  0.73654040  0.51106399     0.05200
O208        O  0.89231946  0.82831450  0.49106887    -0.57400
H209        H  0.96406055  0.84236865  0.45584921     0.18100
O210        O  0.01571008  0.69502445  0.44727238    -0.64100
H211        H  0.94644247  0.68148549  0.48385614     0.16600
C212        C  0.84834910  0.70002453  0.50724734     0.28800
C213        C  0.81151564  0.69086958  0.52694344    -0.25000
C214        C  0.80648409  0.71782835  0.55059877    -0.24300
C215        C  0.84155726  0.75259677  0.55526984     0.40300
C216        C  0.87901579  0.76138208  0.53570385    -0.26800
O217        O  0.84870010  0.67558901  0.48326991    -0.58700
H218        H  0.78472477  0.66414610  0.52282441     0.15900
O219        O  0.83763009  0.78010012  0.57787769    -0.60100
H220        H  0.90509654  0.78881686  0.53936488     0.14400
H221        H  0.99803101  0.68404325  0.43064800     0.46200
H222        H  0.86169883  0.64518146  0.48835963     0.41600
H223        H  0.81720509  0.80640382  0.57176351     0.45100
H224        H  0.86110090  0.82716090  0.48002167     0.36500
C225        C  0.38082901  0.76767786  0.46161436    -0.27700
C226        C  0.38445416  0.79121959  0.48660010     0.01900
C227        C  0.34876325  0.82480962  0.49281173     0.30000
C228        C  0.30876617  0.83290683  0.47487305    -0.19500
C229        C  0.30338368  0.80781826  0.45048031    -0.28900
C230        C  0.34086665  0.77595512  0.44349270     0.44000
C231        C  0.42394535  0.77924264  0.50679572     0.05200
O232        O  0.35137493  0.84848180  0.51701012    -0.57400
H233        H  0.28059159  0.85764148  0.48069431     0.18100
O234        O  0.33680957  0.75016264  0.42018730    -0.64100
H235        H  0.40835984  0.74194920  0.45650698     0.16600
C236        C  0.42527936  0.73604336  0.51909133     0.28800
C237        C  0.46206448  0.72566368  0.53870187    -0.25000
C238        C  0.49880113  0.75759618  0.54596214    -0.24300
C239        C  0.49688678  0.80118229  0.53374354     0.40300
C240        C  0.45952879  0.81167525  0.51452246    -0.26800
O241        O  0.39025766  0.70394715  0.51235216    -0.58700
H242        H  0.46305760  0.69179643  0.54733059     0.15900
O243        O  0.53218483  0.83345415  0.53972439    -0.60100
H244        H  0.45880995  0.84508635  0.50523501     0.14400
H245        H  0.35399909  0.76787185  0.40562997     0.46200
H246        H  0.40669680  0.68463365  0.49829935     0.41600
H247        H  0.52030601  0.84799649  0.55690521     0.45100
H248        H  0.33264674  0.82991020  0.53057290     0.36500
C249        C  0.19817005  0.03529578  0.37077330    -0.27700
C250        C  0.25006441  0.03964373  0.37499214     0.01900
C251        C  0.28020932  0.00053068  0.37452654     0.30000
C252        C  0.25823136  0.95767497  0.37198518    -0.19500
C253        C  0.20579659  0.95263098  0.36973685    -0.28900
C254        C  0.17592201  0.99228707  0.36818240     0.44000
C255        C  0.27261976  0.08460805  0.38106099     0.05200
O256        O  0.33126588  0.00380347  0.37739125    -0.57400
H257        H  0.28246825  0.92818476  0.37284488     0.18100
O258        O  0.12497150  0.98952057  0.36450970    -0.64100
H259        H  0.17456860  0.06524024  0.37051920     0.16600
C260        C  0.27398166  0.11904483  0.36114423     0.28800
C261        C  0.29794055  0.16019204  0.36691810    -0.25000
C262        C  0.32007376  0.16865976  0.39281868    -0.24300
C263        C  0.31712010  0.13440070  0.41305868     0.40300
C264        C  0.29400574  0.09276423  0.40698763    -0.26800
O265        O  0.25338513  0.11229705  0.33564666    -0.58700
H266        H  0.29855079  0.18580670  0.35094310     0.15900
O267        O  0.33584938  0.14133065  0.43894314    -0.60100
H268        H  0.29253173  0.06668862  0.42267993     0.14400
H269        H  0.11002623  0.99500259  0.38286341     0.46200
H270        H  0.21963513  0.12646476  0.33653021     0.41600
H271        H  0.36873555  0.12555038  0.43919948     0.45100
H272        H  0.34450147  0.00562010  0.35835807     0.36500
C273        C  0.21929594  0.60114123  0.37409927    -0.27700
C274        C  0.24885610  0.58217051  0.39493887     0.01900
C275        C  0.25245859  0.60439506  0.42042225     0.30000
C276        C  0.22878531  0.64644365  0.42423965    -0.19500
C277        C  0.20126017  0.66676817  0.40280293    -0.28900
C278        C  0.19539774  0.64285523  0.37787430     0.44000
C279        C  0.27496726  0.53876740  0.38976114     0.05200
O280        O  0.27980656  0.58573228  0.44148298    -0.57400
H281        H  0.23379721  0.66400602  0.44357733     0.18100
O282        O  0.16748110  0.66045940  0.35670676    -0.64100
H283        H  0.21553916  0.58387215  0.35457006     0.16600
C284        C  0.24719531  0.49910057  0.38557437     0.25600
C285        C  0.27188194  0.45823769  0.38043923    -0.25000
C286        C  0.32472086  0.45578275  0.37931887    -0.24300
C287        C  0.35251114  0.49611905  0.38258418     0.40300
C288        C  0.32754332  0.53715104  0.38797111    -0.26800
O289        O  0.19587058  0.49955876  0.38785565    -0.58700
H290        H  0.24923264  0.42804183  0.37814823     0.15900
O291        O  0.40393486  0.49566699  0.38174935    -0.60100
H292        H  0.34923340  0.56779681  0.39081636     0.14400
H293        H  0.13249317  0.65101899  0.36059160     0.46200
H294        H  0.18326472  0.50169209  0.36872675     0.41600
H295        H  0.41266056  0.50143881  0.36223320     0.45100
H296        H  0.25669762  0.56414126  0.45063930     0.36500
C297        C  0.75386844  0.02599709  0.62387309    -0.27700
C298        C  0.78100656  0.98890447  0.61369649     0.01900
C299        C  0.83230484  0.99423092  0.60755747     0.30000
C300        C  0.85511303  0.03678065  0.61029171    -0.19500
C301        C  0.82728583  0.07467574  0.61901800    -0.28900
C302        C  0.77641906  0.06861466  0.62644740     0.44000
C303        C  0.75510936  0.94513045  0.60899172     0.05200
O304        O  0.86016397  0.95822947  0.59828218    -0.57400
H305        H  0.89411195  0.04047509  0.60440168     0.18100
O306        O  0.74831548  0.10413066  0.63623478    -0.64100
H307        H  0.71452269  0.02225927  0.62901843     0.16600
C308        C  0.73328315  0.92120809  0.63091701     0.28800
C309        C  0.71051732  0.87921214  0.62621589    -0.25000
C310        C  0.70827748  0.86032232  0.59961318    -0.24300
C311        C  0.72805468  0.88564754  0.57744287     0.40300
C312        C  0.75166299  0.92737415  0.58230198    -0.26800
O313        O  0.73647631  0.93744768  0.65726517    -0.58700
H314        H  0.69565849  0.86089234  0.64373063     0.15900
O315        O  0.72657913  0.86924786  0.55111331    -0.60100
H316        H  0.76759446  0.94591315  0.56515122     0.14400
H317        H  0.72738882  0.11416516  0.62049512     0.46200
H318        H  0.70341712  0.95167504  0.66099514     0.41600
H319        H  0.69499930  0.88141095  0.54320358     0.45100
H320        H  0.87586861  0.94504454  0.61496028     0.36500
C321        C  0.79804834  0.42209818  0.63477275    -0.27700
C322        C  0.76992575  0.44386719  0.61427940     0.01900
C323        C  0.76928958  0.42549991  0.58756774     0.30000
C324        C  0.79600495  0.38554314  0.58182360    -0.19500
C325        C  0.82310355  0.36298693  0.60254182    -0.28900
C326        C  0.82441123  0.38211603  0.62915167     0.44000
C327        C  0.74507471  0.48769829  0.62055823     0.05200
O328        O  0.74415417  0.44726849  0.56675433    -0.57400
H329        H  0.79417773  0.37146453  0.56129696     0.18100
O330        O  0.85098034  0.36182615  0.64996484    -0.64100
H331        H  0.79949467  0.43620615  0.65530948     0.16600
C332        C  0.69315840  0.49442560  0.61684864     0.28800
C333        C  0.67207847  0.53755617  0.62091554    -0.25000
C334        C  0.70226486  0.57456236  0.62846844    -0.24300
C335        C  0.75377730  0.56689400  0.63363518     0.40300
C336        C  0.77449334  0.52376009  0.62992744    -0.26800
O337        O  0.66299940  0.45941125  0.60858799    -0.58700
H338        H  0.63250808  0.54246822  0.61673790     0.15900
O339        O  0.78450802  0.60146879  0.64199684    -0.60100
H340        H  0.81433544  0.51890832  0.63332588     0.14400
H341        H  0.88492158  0.37546179  0.64905855     0.46200
H342        H  0.64758049  0.44756124  0.62570245     0.41600
H343        H  0.80383846  0.61035743  0.62540681     0.45100
H344        H  0.71399778  0.42856542  0.56315924     0.36500
C345        C  0.96219557  0.04676119  0.50101646    -0.27700
C346        C  0.01504783  0.04788937  0.50075347     0.01900
C347        C  0.03935201  0.08872387  0.50795693     0.30000
C348        C  0.01124213  0.12634123  0.51624761    -0.19500
C349        C  0.95907768  0.12357516  0.51889875    -0.28900
C350        C  0.93433319  0.08391837  0.51053192     0.44000
C351        C  0.04442954  0.00691534  0.49256270     0.05200
O352        O  0.09070362  0.09146282  0.50877879    -0.57400
H353        H  0.03072213  0.15631308  0.52332340     0.18100
O354        O  0.88329593  0.08008709  0.51336448    -0.64100
H355        H  0.94242048  0.01656980  0.49461733     0.16600
C356        C  0.03222924  0.96292742  0.50212677     0.28800
C357        C  0.05760206  0.92482353  0.49159386    -0.25000
C358        C  0.09543459  0.93007311  0.47178494    -0.24300
C359        C  0.11082162  0.97408996  0.46443398     0.40300
C360        C  0.08481580  0.01180646  0.47428372    -0.26800
O361        O  0.99564367  0.95689002  0.52167442    -0.58700
H362        H  0.04527816  0.89119269  0.49747387     0.15900
O363        O  0.15036079  0.98032355  0.44669335    -0.60100
H364        H  0.09510396  0.04489708  0.46648883     0.14400
H365        H  0.86896522  0.09689874  0.49752681     0.46200
H366        H  0.96767157  0.94135401  0.51213656     0.41600
H367        H  0.13550869  0.99249248  0.42953567     0.45100
H368        H  0.10013830  0.08167549  0.52759477     0.36500
C369        C  0.58937835  0.21255746  0.47163161    -0.27700
C370        C  0.62477047  0.24577904  0.47830198     0.01900
C371        C  0.62423428  0.28721928  0.46395175     0.30000
C372        C  0.58666495  0.29604183  0.44447676    -0.19500
C373        C  0.54850850  0.26422925  0.43928728    -0.28900
C374        C  0.55149892  0.22138198  0.45237181     0.44000
C375        C  0.66194605  0.23690835  0.50034964     0.05200
O376        O  0.66028871  0.31930445  0.46888484    -0.57400
H377        H  0.58585713  0.32903155  0.43467235     0.18100
O378        O  0.51613244  0.18861007  0.44770180    -0.64100
H379        H  0.59002739  0.18017263  0.48217241     0.16600
C380        C  0.66166499  0.26206610  0.52499361     0.28800
C381        C  0.69956672  0.25534290  0.54463827    -0.25000
C382        C  0.73804706  0.22365576  0.53998272    -0.24300
C383        C  0.73612313  0.19644463  0.51613936     0.40300
C384        C  0.69832108  0.20317040  0.49661073    -0.26800
O385        O  0.62551250  0.29433620  0.52964509    -0.58700
H386        H  0.70048705  0.27671317  0.56272006     0.15900
O387        O  0.77238294  0.16440495  0.51114478    -0.60100
H388        H  0.69840719  0.18302908  0.47800726     0.14400
H389        H  0.52725346  0.17305988  0.43069335     0.46200
H390        H  0.59493023  0.27718413  0.53477157     0.41600
H391        H  0.76182885  0.13733925  0.52177350     0.45100
H392        H  0.64393943  0.34208022  0.48091332     0.36500
C393        C  0.13038705  0.25549332  0.53463135    -0.27700
C394        C  0.12573140  0.29319042  0.51721118     0.01900
C395        C  0.08278480  0.32059808  0.51905902     0.30000
C396        C  0.04377406  0.30863450  0.53696601    -0.19500
C397        C  0.04652898  0.26907938  0.55329070    -0.28900
C398        C  0.09131579  0.24327022  0.55258105     0.44000
C399        C  0.16424745  0.30164654  0.49585686     0.05200
O400        O  0.07713526  0.35749053  0.50213748    -0.57400
H401        H  0.01008471  0.32924095  0.53687528     0.18100
O402        O  0.09704297  0.20567000  0.56893103    -0.64100
H403        H  0.16378110  0.23452960  0.53361624     0.16600
C404        C  0.20371791  0.33222478  0.50031115     0.28800
C405        C  0.24221353  0.33628581  0.48078554    -0.25000
C406        C  0.24178183  0.31035781  0.45648688    -0.24300
C407        C  0.20050579  0.28180379  0.45137995     0.40300
C408        C  0.16243838  0.27730070  0.47113574    -0.26800
O409        O  0.20554413  0.35746599  0.52393589    -0.58700
H410        H  0.27335701  0.35874540  0.48505522     0.15900
O411        O  0.19897395  0.25539656  0.42823735    -0.60100
H412        H  0.13200758  0.25378086  0.46748203     0.14400
H413        H  0.09413314  0.17933109  0.55640091     0.46200
H414        H  0.22563080  0.33914198  0.53704065     0.41600
H415        H  0.17759615  0.27238422  0.41508253     0.45100
H416        H  0.09553118  0.38236492  0.51135085     0.36500
C417        C  0.57592981  0.30992252  0.23117686    -0.27700
C418        C  0.52413651  0.30044264  0.23266542     0.01900
C419        C  0.49831645  0.29157778  0.20799225     0.30000
C420        C  0.52338955  0.29406835  0.18267544    -0.19500
C421        C  0.57486882  0.30477090  0.18102649    -0.28900
C422        C  0.60124413  0.31194936  0.20574801     0.44000
C423        C  0.49701899  0.30154546  0.25973639     0.05200
O424        O  0.44825991  0.28084945  0.20829929    -0.57400
H425        H  0.50202341  0.28805990  0.16410142     0.18100
O426        O  0.65124642  0.32276770  0.20532274    -0.64100
H427        H  0.59664477  0.31745969  0.24973862     0.16600
C428        C  0.51600219  0.27876172  0.28304690     0.28800
C429        C  0.49130146  0.28230450  0.30849388    -0.25000
C430        C  0.44723664  0.30817788  0.31140556    -0.24300
C431        C  0.42739446  0.32999092  0.28803529     0.40300
C432        C  0.45222531  0.32669253  0.26257423    -0.26800
O433        O  0.55806157  0.25204888  0.28102364    -0.58700
H434        H  0.50713119  0.26514845  0.32620507     0.15900
O435        O  0.38513954  0.35640718  0.29008600    -0.60100
H436        H  0.43719843  0.34514843  0.24515228     0.14400
H437        H  0.65231215  0.35636032  0.20556019     0.46200
H438        H  0.58472056  0.26856447  0.29106582     0.41600
H439        H  0.39726878  0.38660019  0.29601960     0.45100
H440        H  0.44715028  0.24739624  0.21018473     0.36500
C441        C  0.51992073  0.69887090  0.78187218    -0.27700
C442        C  0.50557305  0.73368860  0.76383481     0.01900
C443        C  0.46571347  0.76264774  0.77157777     0.30000
C444        C  0.44003793  0.75563035  0.79654568    -0.19500
C445        C  0.45442687  0.72060544  0.81448637    -0.28900
C446        C  0.49496874  0.69226528  0.80689569     0.44000
C447        C  0.52990533  0.73662962  0.73621397     0.05200
O448        O  0.45181872  0.79808630  0.75495774    -0.57400
H449        H  0.40951988  0.77813026  0.80212908     0.18100
O450        O  0.50984828  0.65712705  0.82354061    -0.64100
H451        H  0.54981130  0.67574472  0.77618557     0.16600
C452        C  0.58256417  0.73730618  0.73319678     0.28800
C453        C  0.60450713  0.73338873  0.70701577    -0.25000
C454        C  0.57477070  0.72880206  0.68326041    -0.24300
C455        C  0.52187744  0.73022902  0.68634635     0.40300
C456        C  0.50015378  0.73423918  0.71251411    -0.26800
O457        O  0.61301370  0.74080730  0.75579852    -0.58700
H458        H  0.64505257  0.73278921  0.70546232     0.15900
O459        O  0.49070395  0.72701345  0.66401815    -0.60100
H460        H  0.45963921  0.73344750  0.71434924     0.14400
H461        H  0.49061129  0.63045835  0.81708625     0.46200
H462        H  0.61796568  0.77380815  0.75847023     0.41600
H463        H  0.48017773  0.69480261  0.66342769     0.45100
H464        H  0.47043685  0.82464443  0.76208868     0.36500
C465        C  0.54221246  0.49085629  0.01355545    -0.27700
C466        C  0.49410448  0.47853514  0.00459236     0.01900
C467        C  0.48115225  0.43217076  0.00374186     0.30000
C468        C  0.51538937  0.39937086  0.01275537    -0.19500
C469        C  0.56203394  0.41219740  0.02346439    -0.28900
C470        C  0.57567416  0.45825743  0.02343900     0.44000
C471        C  0.46001869  0.51425128  0.99400050     0.05200
O472        O  0.43457323  0.41865342  0.99506551    -0.57400
H473        H  0.50380797  0.36418536  0.01342166     0.18100
O474        O  0.62142963  0.47166973  0.03346459    -0.64100
H475        H  0.55388354  0.52598685  0.01314790     0.16600
C476        C  0.45363665  0.55602451  0.00776573     0.28800
C477        C  0.43175046  0.59297596  0.99398724    -0.25000
C478        C  0.41548462  0.58833405  0.96674858    -0.24300
C479        C  0.41513697  0.54450551  0.95480090     0.40300
C480        C  0.43852161  0.50852359  0.96806881    -0.26800
O481        O  0.46965472  0.56110917  0.03439616    -0.58700
H482        H  0.43075758  0.62577255  0.00394382     0.15900
O483        O  0.39603410  0.53704256  0.92902076    -0.60100
H484        H  0.44266953  0.47682952  0.95709087     0.14400
H485        H  0.61419833  0.48616026  0.05142568     0.46200
H486        H  0.49766178  0.58315828  0.03362264     0.41600
H487        H  0.35955593  0.53233198  0.93182165     0.45100
H488        H  0.41447934  0.41490208  0.01208460     0.36500
C489        C  0.95815341  0.77135966  0.23039435    -0.27700
C490        C  0.99757949  0.80071429  0.23761072     0.01900
C491        C  0.01329361  0.83349019  0.21838103     0.30000
C492        C  0.99045917  0.83618381  0.19247568    -0.19500
C493        C  0.95097646  0.80703004  0.18516699    -0.28900
C494        C  0.93506979  0.77421333  0.20438053     0.44000
C495        C  0.02216065  0.79767604  0.26515838     0.05200
O496        O  0.05067960  0.86351021  0.22486069    -0.57400
H497        H  0.00319436  0.86187624  0.17814617     0.18100
O498        O  0.89802787  0.74401556  0.19770673    -0.64100
H499        H  0.94577651  0.74568595  0.24481242     0.16600
C500        C  0.99460690  0.80446289  0.28948599     0.28800
C501        C  0.01936679  0.80665827  0.31490268    -0.25000
C502        C  0.07196774  0.80164469  0.31690230    -0.24300
C503        C  0.09905578  0.79202487  0.29260732     0.40300
C504        C  0.07426136  0.79064002  0.26710036    -0.26800
O505        O  0.94383166  0.81201411  0.28847592    -0.58700
H506        H  0.99711224  0.81373650  0.33304402     0.15900
O507        O  0.14996580  0.78536411  0.29328743    -0.60100
H508        H  0.09600271  0.78469078  0.24862025     0.14400
H509        H  0.91563591  0.71839882  0.18866555     0.46200
H510        H  0.92831532  0.78248119  0.29317820     0.41600
H511        H  0.15443995  0.75209328  0.29496251     0.45100
H512        H  0.03309576  0.89101561  0.23157547     0.36500
C513        C  0.14985765  0.76313548  0.96435628    -0.27700
C514        C  0.14674706  0.73638271  0.98831541     0.01900
C515        C  0.17998611  0.69950693  0.99129955     0.30000
C516        C  0.21681229  0.69138416  0.97139053    -0.19500
C517        C  0.22221784  0.71993839  0.94833677    -0.28900
C518        C  0.18733788  0.75533104  0.94453875     0.44000
C519        C  0.11054615  0.74836207  0.01060908     0.05200
O520        O  0.17877741  0.67261725  0.01433760    -0.57400
H521        H  0.24326703  0.66400797  0.97485800     0.18100
O522        O  0.19238491  0.78506168  0.92302022    -0.64100
H523        H  0.12419332  0.79126054  0.96144797     0.16600
C524        C  0.10744728  0.79296968  0.02093399     0.28800
C525        C  0.07151569  0.80417272  0.04088839    -0.25000
C526        C  0.03833224  0.77133890  0.05116445    -0.24300
C527        C  0.04381248  0.72602054  0.04223109     0.40300
C528        C  0.07918192  0.71501432  0.02197489    -0.26800
O529        O  0.13868173  0.82622892  0.01122869    -0.58700
H530        H  0.06789018  0.83922347  0.04720310     0.15900
O531        O  0.01327175  0.69246833  0.05227995    -0.60100
H532        H  0.08106187  0.68044779  0.01457318     0.14400
H533        H  0.16660974  0.77581459  0.90947398     0.46200
H534        H  0.16976991  0.82335366  0.02228616     0.41600
H535        H  0.03013983  0.68146301  0.06919278     0.45100
H536        H  0.19705696  0.68987376  0.02864034     0.36500
C537        C  0.65372871  0.75348505  0.03372647    -0.27700
C538        C  0.65102982  0.77607240  0.00823382     0.01900
C539        C  0.68609269  0.81051604  0.00260868     0.30000
C540        C  0.72362583  0.82089248  0.02170399    -0.19500
C541        C  0.72783810  0.79722111  0.04676783    -0.28900
C542        C  0.69168717  0.76374327  0.05289091     0.44000
C543        C  0.61158790  0.76406179  0.98763576     0.05200
O544        O  0.68515597  0.83328988  0.97800409    -0.57400
H545        H  0.75086845  0.84664730  0.01633041     0.18100
O546        O  0.69404154  0.73972878  0.07702617    -0.64100
H547        H  0.62664683  0.72737584  0.03866443     0.16600
C548        C  0.60530647  0.71925445  0.97815185     0.28800
C549        C  0.56715929  0.70894481  0.95916833    -0.25000
C550        C  0.53441702  0.74277320  0.94935795    -0.24300
C551        C  0.54179710  0.78784186  0.95833064     0.40300
C552        C  0.58009460  0.79807675  0.97707148    -0.26800
O553        O  0.63580481  0.68514632  0.98762682    -0.58700
H554        H  0.56189332  0.67399764  0.95303942     0.15900
O555        O  0.51163687  0.82230804  0.94894785    -0.60100
H556        H  0.58433859  0.83276405  0.98394330     0.14400
H557        H  0.71234224  0.71142240  0.07245898     0.46200
H558        H  0.66100234  0.68033314  0.97289994     0.41600
H559        H  0.48765879  0.82846658  0.96410723     0.45100
H560        H  0.70722922  0.81554617  0.96559213     0.36500
C561        C  0.73797695  0.09395027  0.07766280    -0.27700
C562        C  0.75010923  0.07969408  0.10440385     0.01900
C563        C  0.73716665  0.10725298  0.12676821     0.30000
C564        C  0.71285272  0.14861223  0.12237628    -0.19500
C565        C  0.70092994  0.16374056  0.09565641    -0.28900
C566        C  0.71379827  0.13572068  0.07312918     0.44000
C567        C  0.77407759  0.03508620  0.10925797     0.05200
O568        O  0.74827210  0.09403085  0.15312042    -0.57400
H569        H  0.70391053  0.16917285  0.14014578     0.18100
O570        O  0.70475482  0.14938129  0.04662446    -0.64100
H571        H  0.74773091  0.07280820  0.06025979     0.16600
C572        C  0.74635753  0.99514843  0.10593239     0.28800
C573        C  0.76811216  0.95321073  0.11208791    -0.25000
C574        C  0.81826796  0.94985602  0.12109014    -0.24300
C575        C  0.84589676  0.99026460  0.12474457     0.40300
C576        C  0.82361470  0.03241652  0.11895383    -0.26800
O577        O  0.69745758  0.99687088  0.09721000    -0.58700
H578        H  0.74575312  0.92305983  0.10892933     0.15900
O579        O  0.89484512  0.98912054  0.13338465    -0.60100
H580        H  0.84512749  0.06314755  0.12187333     0.14400
H581        H  0.67316876  0.13405616  0.04128484     0.46200
H582        H  0.69900094  0.99185097  0.07707290     0.41600
H583        H  0.89304411  0.98878177  0.15374814     0.45100
H584        H  0.72042727  0.07370760  0.15864954     0.36500
C585        C  0.79042323  0.59478030  0.08188338    -0.27700
C586        C  0.78573158  0.57680784  0.10851539     0.01900
C587        C  0.80609435  0.60096696  0.13074658     0.30000
C588        C  0.82836752  0.64334473  0.12636505    -0.19500
C589        C  0.83073462  0.66275201  0.09987799    -0.28900
C590        C  0.81257763  0.63728370  0.07742721     0.44000
C591        C  0.75793106  0.53373593  0.11297351     0.05200
O592        O  0.80272905  0.58426664  0.15701829    -0.57400
H593        H  0.84222946  0.66176742  0.14403057     0.18100
O594        O  0.81487874  0.65397284  0.05112279    -0.64100
H595        H  0.77581778  0.57615314  0.06447986     0.16600
C596        C  0.70736477  0.52961216  0.10494321     0.28800
C597        C  0.68202102  0.48836858  0.10848495    -0.25000
C598        C  0.70674182  0.45023366  0.11937468    -0.24300
C599        C  0.75696783  0.45487119  0.12820805     0.40300
C600        C  0.78192164  0.49644905  0.12522112    -0.26800
O601        O  0.68222835  0.56598972  0.09393507    -0.58700
H602        H  0.64354978  0.48570820  0.10151427     0.15900
O603        O  0.78188737  0.41904924  0.14000119    -0.60100
H604        H  0.82061888  0.49921121  0.13181353     0.14400
H605        H  0.78187780  0.66863467  0.04789029     0.46200
H606        H  0.68102682  0.56020540  0.07386776     0.41600
H607        H  0.80408269  0.40695798  0.12535615     0.45100
H608        H  0.76932931  0.59412020  0.16378453     0.36500
C609        C  0.07703134  0.19685592  0.76140493    -0.27700
C610        C  0.03040382  0.21918535  0.75904598     0.01900
C611        C  0.00950402  0.23950907  0.78259199     0.30000
C612        C  0.03408125  0.23617282  0.80791968    -0.19500
C613        C  0.08020511  0.21328145  0.81043756    -0.28900
C614        C  0.10193723  0.19388197  0.78683012     0.44000
C615        C  0.00340135  0.22041165  0.73218689     0.05200
O616        O  0.96475115  0.26243721  0.78115506    -0.57400
H617        H  0.01659977  0.25117272  0.82586652     0.18100
O618        O  0.14615878  0.17018556  0.78860098    -0.64100
H619        H  0.09347314  0.18040805  0.74365582     0.16600
C620        C  0.02762841  0.23536567  0.70812560     0.28800
C621        C  0.00242371  0.23442030  0.68286806    -0.25000
C622        C  0.95269528  0.21876456  0.68088483    -0.24300
C623        C  0.92774893  0.20532241  0.70513774     0.40300
C624        C  0.95312417  0.20607713  0.73045067    -0.26800
O625        O  0.07553685  0.25220917  0.70923656    -0.58700
H626        H  0.02224767  0.24558516  0.66462184     0.15900
O627        O  0.87924483  0.18995150  0.70428470    -0.60100
H628        H  0.93380468  0.19428453  0.74870733     0.14400
H629        H  0.13619274  0.13808849  0.79118771     0.46200
H630        H  0.09713573  0.22846719  0.70094031     0.41600
H631        H  0.88200857  0.15682929  0.70117184     0.45100
H632        H  0.97377943  0.29385430  0.77586295     0.36500
C633        C  0.97963821  0.08301197  0.98447194    -0.27700
C634        C  0.00579872  0.04463949  0.99389232     0.01900
C635        C  0.05879813  0.04557188  0.99400983     0.30000
C636        C  0.08444080  0.08269574  0.98276006    -0.19500
C637        C  0.05799222  0.12023767  0.97256252    -0.28900
C638        C  0.00536585  0.12085892  0.97447912     0.44000
C639        C  0.97757402  0.00416357  0.00372871     0.05200
O640        O  0.08589202  0.00991988  0.00442859    -0.57400
H641        H  0.12495546  0.08140478  0.98096351     0.18100
O642        O  0.97845111  0.15655900  0.96412409    -0.64100
H643        H  0.93901571  0.08312177  0.98392278     0.16600
C644        C  0.93883094  0.00873527  0.02323038     0.28800
C645        C  0.91664096  0.97015227  0.03462585    -0.25000
C646        C  0.93229961  0.92635846  0.02703033    -0.24300
C647        C  0.96806770  0.92166052  0.00591264     0.40300
C648        C  0.99042458  0.96042600  0.99441845    -0.26800
O649        O  0.92577360  0.05056868  0.03328358    -0.58700
H650        H  0.88938787  0.97454066  0.05098043     0.15900
O651        O  0.98516574  0.87962329  0.99835535    -0.60100
H652        H  0.01930710  0.95624284  0.97893652     0.14400
H653        H  0.97735981  0.17915046  0.97917792     0.46200
H654        H  0.89209418  0.05707425  0.02553840     0.41600
H655        H  0.96074801  0.86868779  0.98452079     0.45100
H656        H  0.08956646  0.01654925  0.02430205     0.36500
C657        C  0.31582487  0.49331220  0.87072746    -0.27700
C658        C  0.26345284  0.49111155  0.87382183     0.01900
C659        C  0.23532559  0.53139174  0.87238516     0.30000
C660        C  0.25963710  0.57313286  0.86938548    -0.19500
C661        C  0.31238868  0.57586559  0.86752859    -0.28900
C662        C  0.34026006  0.53505284  0.86731465     0.44000
C663        C  0.23851009  0.44677777  0.87874001     0.05200
O664        O  0.18398659  0.53040392  0.87434841    -0.57400
H665        H  0.23691122  0.60361915  0.86933633     0.18100
O666        O  0.39155582  0.53545711  0.86517427    -0.64100
H667        H  0.33807521  0.46257692  0.87168429     0.16600
C668        C  0.24425252  0.41095969  0.86002331     0.28800
C669        C  0.22107180  0.36925731  0.86506830    -0.25000
C670        C  0.19265771  0.36168255  0.88911607    -0.24300
C671        C  0.18663302  0.39786614  0.90781320     0.40300
C672        C  0.20924861  0.43995985  0.90246599    -0.26800
O673        O  0.27166464  0.41672195  0.83638639    -0.58700
H674        H  0.22669648  0.34233638  0.85026746     0.15900
O675        O  0.15980163  0.39237491  0.93164870    -0.60100
H676        H  0.20475022  0.46717796  0.91719003     0.14400
H677        H  0.39854046  0.53443002  0.84515841     0.46200
H678        H  0.30408611  0.40114621  0.83983305     0.41600
H679        H  0.12435864  0.39811006  0.92648075     0.45100
H680        H  0.17196453  0.52570393  0.85527925     0.36500
C681        C  0.27713984  0.92279477  0.91450790    -0.27700
C682        C  0.28261886  0.94383985  0.88877970     0.01900
C683        C  0.31351887  0.92359344  0.86884001     0.30000
C684        C  0.33640011  0.88177578  0.87426263    -0.19500
C685        C  0.32926229  0.85945907  0.89960121    -0.28900
C686        C  0.30055327  0.88117233  0.92012472     0.44000
C687        C  0.25626002  0.98712106  0.88310163     0.05200
O688        O  0.32030713  0.94374138  0.84367574    -0.57400
H689        H  0.35842494  0.86598798  0.85815936     0.18100
O690        O  0.29223563  0.86071953  0.94504190    -0.64100
H691        H  0.25405579  0.93848117  0.93019535     0.16600
C692        C  0.20350759  0.98964341  0.88292482     0.28800
C693        C  0.17942241  0.03170229  0.87984108    -0.25000
C694        C  0.20737477  0.07186228  0.87712714    -0.24300
C695        C  0.26040129  0.06861219  0.87574410     0.40300
C696        C  0.28420743  0.02653747  0.87866395    -0.26800
O697        O  0.17525419  0.95105495  0.88545317    -0.58700
H698        H  0.13881758  0.03296090  0.88060523     0.15900
O699        O  0.28952696  0.10630768  0.87159305    -0.60100
H700        H  0.32483665  0.02488918  0.87828965     0.14400
H701        H  0.31803927  0.87345895  0.95748543     0.46200
H702        H  0.16484224  0.95000439  0.90501778     0.41600
H703        H  0.30273344  0.11436846  0.89000264     0.45100
H704        H  0.29340785  0.93129513  0.83183089     0.36500
C705        C  0.39369810  0.28644983  0.03532096    -0.27700
C706        C  0.39472118  0.24753824  0.01876929     0.01900
C707        C  0.43541304  0.21742034  0.02107529     0.30000
C708        C  0.47550602  0.22753361  0.03862789    -0.19500
C709        C  0.47623236  0.26791931  0.05412183    -0.28900
C710        C  0.43382504  0.29678276  0.05286817     0.44000
C711        C  0.35381211  0.23944084  0.99864691     0.05200
O712        O  0.43705974  0.17861336  0.00562203    -0.57400
H713        H  0.50718793  0.20448042  0.03908526     0.18100
O714        O  0.43220763  0.33650429  0.06742332    -0.64100
H715        H  0.36241784  0.30985771  0.03386566     0.16600
C716        C  0.30421374  0.23337235  0.00756907     0.28800
C717        C  0.26568892  0.22780552  0.98837113    -0.25000
C718        C  0.27514607  0.22914778  0.95979844    -0.24300
C719        C  0.32522547  0.23480717  0.95089898     0.40300
C720        C  0.36406000  0.23939109  0.97028617    -0.26800
O721        O  0.29315791  0.23194773  0.03511327    -0.58700
H722        H  0.22791436  0.22329434  0.99612809     0.15900
O723        O  0.33674780  0.23624585  0.92343434    -0.60100
H724        H  0.40220370  0.24418045  0.96313645     0.14400
H725        H  0.41677467  0.32840788  0.08532071     0.46200
H726        H  0.27887850  0.26216640  0.03946934     0.41600
H727        H  0.34043671  0.26889153  0.91899164     0.45100
H728        H  0.41843545  0.15570303  0.01650824     0.36500
C729        C  0.85799354  0.26175083  0.01860757    -0.27700
C730        C  0.85485200  0.28480339  0.99335134     0.01900
C731        C  0.81655944  0.31680338  0.98935030     0.30000
C732        C  0.78117769  0.32460119  0.01006957    -0.19500
C733        C  0.78296696  0.30074568  0.03519180    -0.28900
C734        C  0.82225353  0.26933859  0.03943712     0.44000
C735        C  0.89291310  0.27699451  0.97163878     0.05200
O736        O  0.81221944  0.33930931  0.96476759    -0.57400
H737        H  0.75110199  0.34849893  0.00607792     0.18100
O738        O  0.82481922  0.24444474  0.06323660    -0.64100
H739        H  0.88776873  0.23729934  0.02198110     0.16600
C740        C  0.93378855  0.30653314  0.96900893     0.28800
C741        C  0.97155802  0.29751389  0.94980369    -0.25000
C742        C  0.96985699  0.25861667  0.93303514    -0.24300
C743        C  0.92627568  0.23141732  0.93391630     0.40300
C744        C  0.88855251  0.24033304  0.95344282    -0.26800
O745        O  0.93794646  0.34361677  0.98581062    -0.58700
H746        H  0.00389556  0.31967909  0.94942540     0.15900
O747        O  0.92144717  0.19454486  0.91701853    -0.60100
H748        H  0.85638698  0.21804908  0.95479343     0.14400
H749        H  0.80543511  0.21647062  0.05948125     0.46200
H750        H  0.95839928  0.33322017  0.00164213     0.41600
H751        H  0.90506399  0.20635070  0.90016358     0.45100
H752        H  0.83315961  0.36683713  0.96676667     0.36500
loop_ 
_geom_bond_atom_site_label_1 
_geom_bond_atom_site_label_2 
_geom_bond_distance 
_geom_bond_site_symmetry_2 
_ccdc_geom_bond_type 
Fe1          O17   2.103       .  S
Fe1           O7   2.029       .  S
Fe1          O14   2.033       .  S
Fe1           O6   2.120       .  S
Fe1          O12   1.935       .  S
Fe2           O5   2.127       .  S
Fe2           O9   2.038       .  S
Fe2          O13   2.130       .  S
Fe2          O18   2.040       .  S
Fe2          O12   1.932       .  S
Fe3          O21   2.034       .  S
Fe3           O8   2.110       .  S
Fe3          O15   2.126       .  S
Fe3           O4   2.041       .  S
Fe3          O12   1.933       .  S
O4           C11   1.265       .  A
O5           C19   1.284       .  A
O6           C11   1.279       .  A
O7           C10   1.261       .  A
O8           C20   1.277       .  A
O9           C22   1.263       .  A
C10          O15   1.280       .  A
C10         C637   1.469       .  S
C11         C742   1.493   1_455  S
O13          C16   1.284       .  A
O14          C16   1.268       .  A
C16         C613   1.483       .  S
O17          C22   1.275       .  A
O18          C20   1.266       .  A
C19          O21   1.268       .  A
C19         C718   1.497       .  S
C20         C670   1.493       .  S
C22         C694   1.491       .  S
Fe23         O39   2.046       .  S
Fe23         O29   2.117       .  S
Fe23         O36   2.096       .  S
Fe23         O28   2.020       .  S
Fe23         O34   1.936       .  S
Fe24         O27   2.042       .  S
Fe24         O31   2.126       .  S
Fe24         O35   2.045       .  S
Fe24         O40   2.131       .  S
Fe24         O34   1.938       .  S
Fe25         O43   2.119       .  S
Fe25         O30   2.039       .  S
Fe25         O37   2.033       .  S
Fe25         O26   2.127       .  S
Fe25         O34   1.928       .  S
O26          C33   1.279       .  A
O27          C41   1.270       .  A
O28          C33   1.260       .  A
O29          C32   1.281       .  A
O30          C42   1.264       .  A
O31          C44   1.282       .  A
C32          O37   1.265       .  A
C32         C526   1.485   1_655  S
C33         C646   1.480       .  S
O35          C38   1.269       .  A
O36          C38   1.276       .  A
C38         C574   1.491       .  S
O39          C44   1.268       .  A
O40          C42   1.280       .  A
C41          O43   1.283       .  A
C41         C589   1.493       .  S
C42         C541   1.494       .  S
C44         C493   1.491       .  S
Fe45         O61   2.035       .  S
Fe45         O51   2.126       .  S
Fe45         O58   2.105       .  S
Fe45         O50   2.000       .  S
Fe45         O56   1.927       .  S
Fe46         O49   2.034       .  S
Fe46         O53   2.131       .  S
Fe46         O57   2.045       .  S
Fe46         O62   2.131       .  S
Fe46         O56   1.933       .  S
Fe47         O65   2.122       .  S
Fe47         O52   2.026       .  S
Fe47         O59   2.039       .  S
Fe47         O48   2.122       .  S
Fe47         O56   1.928       .  S
O48          C55   1.279       .  A
O49          C63   1.268       .  A
O50          C55   1.257       .  A
O51          C54   1.281       .  A
O52          C64   1.261       .  A
O53          C66   1.284       .  A
C54          O59   1.266       .  A
C54         C550   1.493       .  S
C55         C478   1.481       .  S
O57          C60   1.267       .  A
O58          C60   1.277       .  A
C60         C661   1.494       .  S
O61          C66   1.267       .  A
O62          C64   1.280       .  A
C63          O65   1.283       .  A
C63         C685   1.486       .  S
C64         C517   1.486       .  S
C66         C445   1.488       .  S
Fe67         O83   2.097       .  S
Fe67         O73   2.023       .  S
Fe67         O80   2.037       .  S
Fe67         O72   2.120       .  S
Fe67         O78   1.925       .  S
Fe68         O71   2.136       .  S
Fe68         O75   2.050       .  S
Fe68         O79   2.140       .  S
Fe68         O84   2.041       .  S
Fe68         O78   1.929       .  S
Fe69         O87   2.030       .  S
Fe69         O74   2.112       .  S
Fe69         O81   2.110       .  S
Fe69         O70   2.043       .  S
Fe69         O78   1.936       .  S
O70          C77   1.270       .  A
O71          C85   1.285       .  A
O72          C77   1.281       .  A
O73          C76   1.257       .  A
O74          C86   1.278       .  A
O75          C88   1.266       .  A
C76          O81   1.275       .  A
C76         C469   1.465       .  S
C77         C709   1.495       .  S
O79          C82   1.287       .  A
O80          C82   1.268       .  A
C82         C421   1.498       .  S
O83          C88   1.275       .  A
O84          C86   1.268       .  A
C85          O87   1.266       .  A
C85         C733   1.488       .  S
C86         C565   1.492       .  S
C88         C598   1.488       .  S
Fe89        O105   2.098       .  S
Fe89         O95   2.030       .  S
Fe89        O102   2.041       .  S
Fe89         O94   2.116       .  S
Fe89        O100   1.929       .  S
Fe90         O93   2.123       .  S
Fe90         O97   2.041       .  S
Fe90        O101   2.121       .  S
Fe90        O106   2.039       .  S
Fe90        O100   1.934       .  S
Fe91        O109   2.034       .  S
Fe91         O96   2.113       .  S
Fe91        O103   2.116       .  S
Fe91         O92   2.046       .  S
Fe91        O100   1.935       .  S
O92          C99   1.269       .  A
O93         C107   1.281       .  A
O94          C99   1.280       .  A
O95          C98   1.260       .  A
O96         C108   1.279       .  A
O97         C110   1.265       .  A
C98         O103   1.276       .  A
C98         C349   1.464       .  S
C99         C397   1.495   1_655  S
O101        C104   1.282       .  A
O102        C104   1.269       .  A
C104        C622   1.489       .  S
O105        C110   1.275       .  A
O106        C108   1.266       .  A
C107        O109   1.266       .  A
C107        C382   1.481       .  S
C108        C325   1.485       .  S
C110        C301   1.486       .  S
Fe111       O127   2.045       .  S
Fe111       O117   2.107       .  S
Fe111       O124   2.100       .  S
Fe111       O116   2.018       .  S
Fe111       O122   1.929       .  S
Fe112       O115   2.043       .  S
Fe112       O119   2.124       .  S
Fe112       O123   2.053       .  S
Fe112       O128   2.114       .  S
Fe112       O122   1.933       .  S
Fe113       O131   2.110       .  S
Fe113       O118   2.038       .  S
Fe113       O125   2.037       .  S
Fe113       O114   2.121       .  S
Fe113       O122   1.935       .  S
O114        C121   1.278       .  A
O115        C129   1.270       .  A
O116        C121   1.261       .  A
O117        C120   1.278       .  A
O118        C130   1.266       .  A
O119        C132   1.282       .  A
C120        O125   1.265       .  A
C120        C205   1.480   1_455  S
C121        C358   1.475       .  S
O123        C126   1.269       .  A
O124        C126   1.276       .  A
C126        C253   1.496       .  S
O127        C132   1.268       .  A
O128        C130   1.278       .  A
C129        O131   1.280       .  A
C129        C277   1.484       .  S
C130        C229   1.484       .  S
C132        C502   1.501       .  S
Fe133       O149   2.052       .  S
Fe133       O139   2.112       .  S
Fe133       O146   2.099       .  S
Fe133       O138   2.023       .  S
Fe133       O144   1.928       .  S
Fe134       O137   2.037       .  S
Fe134       O141   2.115       .  S
Fe134       O145   2.039       .  S
Fe134       O150   2.115       .  S
Fe134       O144   1.937       .  S
Fe135       O153   2.129       .  S
Fe135       O140   2.026       .  S
Fe135       O147   2.034       .  S
Fe135       O136   2.128       .  S
Fe135       O144   1.927       .  S
O136        C143   1.280       .  A
O137        C151   1.270       .  A
O138        C143   1.262       .  A
O139        C142   1.280       .  A
O140        C152   1.260       .  A
O141        C154   1.280       .  A
C142        O147   1.265       .  A
C142        C238   1.486       .  S
C143        C190   1.484       .  S
O145        C148   1.267       .  A
O146        C148   1.277       .  A
C148        C334   1.486       .  S
O149        C154   1.269       .  A
O150        C152   1.276       .  A
C151        O153   1.285       .  A
C151        C310   1.494       .  S
C152        C214   1.479       .  S
C154        C454   1.499       .  S
Fe155       O171   2.104       .  S
Fe155       O161   2.033       .  S
Fe155       O168   2.049       .  S
Fe155       O160   2.109       .  S
Fe155       O166   1.933       .  S
Fe156       O159   2.118       .  S
Fe156       O163   2.024       .  S
Fe156       O167   2.124       .  S
Fe156       O172   2.033       .  S
Fe156       O166   1.934       .  S
Fe157       O175   2.044       .  S
Fe157       O162   2.136       .  S
Fe157       O169   2.132       .  S
Fe157       O158   2.046       .  S
Fe157       O166   1.934       .  S
O158        C165   1.269       .  A
O159        C173   1.281       .  A
O160        C165   1.280       .  A
O161        C164   1.262       .  A
O162        C174   1.284       .  A
O163        C176   1.263       .  A
C164        O169   1.280       .  A
C164        C181   1.477       .  S
C165        C373   1.492       .  S
O167        C170   1.282       .  A
O168        C170   1.268       .  A
C170        C430   1.488       .  S
O171        C176   1.276       .  A
O172        C174   1.266       .  A
C173        O175   1.267       .  A
C173        C406   1.485       .  S
C174        C262   1.500       .  S
C176        C286   1.488       .  S
C177        C178   1.408       .  A
C177        C182   1.400       .  A
C177        H187   1.082       .  S
C178        C183   1.502       .  S
C178        C179   1.417       .  A
C179        C180   1.406       .  A
C179        O184   1.371       .  S
C180        C181   1.403       .  A
C180        H185   1.083       .  S
C181        C182   1.406       .  A
C182        O186   1.372       .  S
C183        C188   1.419       .  A
C183        C192   1.404       .  A
O184        H200   0.991       .  S
O186        H197   0.992       .  S
C188        C189   1.409       .  A
C188        O193   1.373       .  S
C189        C190   1.401       .  A
C189        H194   1.084       .  S
C190        C191   1.412       .  A
C191        C192   1.398       .  A
C191        O195   1.371       .  S
C192        H196   1.082       .  S
O193        H198   0.992       .  S
O195        H199   0.992       .  S
C201        C202   1.404       .  A
C201        C206   1.398       .  A
C201        H211   1.083       .  S
C202        C207   1.488       .  S
C202        C203   1.412       .  A
C203        C204   1.401       .  A
C203        O208   1.372       .  S
C204        C205   1.405       .  A
C204        H209   1.084       .  S
C205        C206   1.411       .  A
C206        O210   1.372   1_655  S
C207        C212   1.408       .  A
C207        C216   1.408       .  A
O208        H224   0.992       .  S
O210        H221   0.992   1_455  S
C212        C213   1.397       .  A
C212        O217   1.372       .  S
C213        C214   1.406       .  A
C213        H218   1.084       .  S
C214        C215   1.408       .  A
C215        C216   1.403       .  A
C215        O219   1.372       .  S
C216        H220   1.083       .  S
O217        H222   0.992       .  S
O219        H223   0.992       .  S
C225        C226   1.405       .  A
C225        C230   1.404       .  A
C225        H235   1.084       .  S
C226        C231   1.482       .  S
C226        C227   1.405       .  A
C227        C228   1.398       .  A
C227        O232   1.372       .  S
C228        C229   1.407       .  A
C228        H233   1.084       .  S
C229        C230   1.412       .  A
C230        O234   1.371       .  S
C231        C236   1.407       .  A
C231        C240   1.401       .  A
O232        H248   0.992       .  S
O234        H245   0.992       .  S
C236        C237   1.401       .  A
C236        O241   1.372       .  S
C237        C238   1.406       .  A
C237        H242   1.083       .  S
C238        C239   1.417       .  A
C239        C240   1.400       .  A
C239        O243   1.372       .  S
C240        H244   1.084       .  S
O241        H246   0.992       .  S
O243        H247   0.992       .  S
C249        C250   1.404       .  A
C249        C254   1.408   1_545  A
C249        H259   1.083       .  S
C250        C255   1.488       .  S
C250        C251   1.405       .  A
C251        C252   1.401   1_545  A
C251        O256   1.371       .  S
C252        C253   1.410       .  A
C252        H257   1.083       .  S
C253        C254   1.416       .  A
C254        O258   1.372       .  S
C255        C260   1.403       .  A
C255        C264   1.406       .  A
O256        H272   0.992       .  S
O258        H269   0.991       .  S
C260        C261   1.402       .  A
C260        O265   1.372       .  S
C261        C262   1.415       .  A
C261        H266   1.083       .  S
C262        C263   1.412       .  A
C263        C264   1.408       .  A
C263        O267   1.371       .  S
C264        H268   1.084       .  S
O265        H270   0.992       .  S
O267        H271   0.991       .  S
C273        C274   1.400       .  A
C273        C278   1.397       .  A
C273        H283   1.084       .  S
C274        C279   1.478       .  S
C274        C275   1.407       .  A
C275        C276   1.403       .  A
C275        O280   1.372       .  S
C276        C277   1.408       .  A
C276        H281   1.083       .  S
C277        C278   1.413       .  A
C278        O282   1.372       .  S
C279        C284   1.402       .  A
C279        C288   1.404       .  A
O280        H296   0.992       .  S
O282        H293   0.992       .  S
C284        C285   1.395       .  A
C284        O289   1.372       .  S
C285        C286   1.411       .  A
C285        H290   1.083       .  S
C286        C287   1.413       .  A
C287        C288   1.405       .  A
C287        O291   1.371       .  S
C288        H292   1.083       .  S
O289        H294   0.991       .  S
O291        H295   0.992       .  S
C297        C298   1.401   1_545  A
C297        C302   1.401       .  A
C297        H307   1.084       .  S
C298        C303   1.484       .  S
C298        C299   1.408       .  A
C299        C300   1.403   1_565  A
C299        O304   1.371       .  S
C300        C301   1.406       .  A
C300        H305   1.083       .  S
C301        C302   1.414       .  A
C302        O306   1.372       .  S
C303        C308   1.404       .  A
C303        C312   1.404       .  A
O304        H320   0.992       .  S
O306        H317   0.992       .  S
C308        C309   1.400       .  A
C308        O313   1.372       .  S
C309        C310   1.411       .  A
C309        H314   1.083       .  S
C310        C311   1.413       .  A
C311        C312   1.404       .  A
C311        O315   1.371       .  S
C312        H316   1.084       .  S
O313        H318   0.992       .  S
O315        H319   0.992       .  S
C321        C322   1.402       .  A
C321        C326   1.399       .  A
C321        H331   1.084       .  S
C322        C327   1.484       .  S
C322        C323   1.409       .  A
C323        C324   1.404       .  A
C323        O328   1.372       .  S
C324        C325   1.406       .  A
C324        H329   1.083       .  S
C325        C326   1.414       .  A
C326        O330   1.372       .  S
C327        C332   1.409       .  A
C327        C336   1.400       .  A
O328        H344   0.992       .  S
O330        H341   0.992       .  S
C332        C333   1.404       .  A
C332        O337   1.371       .  S
C333        C334   1.407       .  A
C333        H338   1.083       .  S
C334        C335   1.413       .  A
C335        C336   1.398       .  A
C335        O339   1.372       .  S
C336        H340   1.084       .  S
O337        H342   0.992       .  S
O339        H343   0.992       .  S
C345        C346   1.409   1_655  A
C345        C350   1.402       .  A
C345        H355   1.082       .  S
C346        C351   1.493       .  S
C346        C347   1.414       .  A
C347        C348   1.397       .  A
C347        O352   1.372       .  S
C348        C349   1.398   1_455  A
C348        H353   1.083       .  S
C349        C350   1.406       .  A
C350        O354   1.372       .  S
C351        C356   1.416   1_545  A
C351        C360   1.403       .  A
O352        H368   0.992       .  S
O354        H365   0.992       .  S
C356        C357   1.408       .  A
C356        O361   1.373   1_455  S
C357        C358   1.403       .  A
C357        H362   1.084       .  S
C358        C359   1.408       .  A
C359        C360   1.395   1_565  A
C359        O363   1.374       .  S
C360        H364   1.083       .  S
O361        H366   0.992       .  S
O363        H367   0.990       .  S
C369        C370   1.401       .  A
C369        C374   1.402       .  A
C369        H379   1.084       .  S
C370        C375   1.483       .  S
C370        C371   1.407       .  A
C371        C372   1.403       .  A
C371        O376   1.372       .  S
C372        C373   1.409       .  A
C372        H377   1.083       .  S
C373        C374   1.416       .  A
C374        O378   1.371       .  S
C375        C380   1.411       .  A
C375        C384   1.400       .  A
O376        H392   0.992       .  S
O378        H389   0.992       .  S
C380        C381   1.405       .  A
C380        O385   1.372       .  S
C381        C382   1.405       .  A
C381        H386   1.084       .  S
C382        C383   1.413       .  A
C383        C384   1.399       .  A
C383        O387   1.372       .  S
C384        H388   1.084       .  S
O385        H390   0.992       .  S
O387        H391   0.992       .  S
C393        C394   1.402       .  A
C393        C398   1.405       .  A
C393        H403   1.084       .  S
C394        C399   1.481       .  S
C394        C395   1.403       .  A
C395        C396   1.401       .  A
C395        O400   1.372       .  S
C396        C397   1.412       .  A
C396        H401   1.083       .  S
C397        C398   1.415       .  A
C398        O402   1.372       .  S
C399        C404   1.405       .  A
C399        C408   1.403       .  A
O400        H416   0.992       .  S
O402        H413   0.992       .  S
C404        C405   1.403       .  A
C404        O409   1.372       .  S
C405        C406   1.409       .  A
C405        H410   1.084       .  S
C406        C407   1.410       .  A
C407        C408   1.403       .  A
C407        O411   1.371       .  S
C408        H412   1.084       .  S
O409        H414   0.992       .  S
O411        H415   0.992       .  S
C417        C418   1.411       .  A
C417        C422   1.410       .  A
C417        H427   1.083       .  S
C418        C423   1.502       .  S
C418        C419   1.409       .  A
C419        C420   1.402       .  A
C419        O424   1.372       .  S
C420        C421   1.411       .  A
C420        H425   1.084       .  S
C421        C422   1.410       .  A
C422        O426   1.371       .  S
C423        C428   1.411       .  A
C423        C432   1.411       .  A
O424        H440   0.992       .  S
O426        H437   0.992       .  S
C428        C429   1.405       .  A
C428        O433   1.372       .  S
C429        C430   1.406       .  A
C429        H434   1.084       .  S
C430        C431   1.408       .  A
C431        C432   1.407       .  A
C431        O435   1.372       .  S
C432        H436   1.083       .  S
O433        H438   0.992       .  S
O435        H439   0.992       .  S
C441        C442   1.402       .  A
C441        C446   1.400       .  A
C441        H451   1.084       .  S
C442        C447   1.494       .  S
C442        C443   1.413       .  A
C443        C444   1.409       .  A
C443        O448   1.371       .  S
C444        C445   1.404       .  A
C444        H449   1.083       .  S
C445        C446   1.414       .  A
C446        O450   1.372       .  S
C447        C452   1.411       .  A
C447        C456   1.402       .  A
O448        H464   0.992       .  S
O450        H461   0.992       .  S
C452        C453   1.406       .  A
C452        O457   1.371       .  S
C453        C454   1.409       .  A
C453        H458   1.083       .  S
C454        C455   1.418       .  A
C455        C456   1.403       .  A
C455        O459   1.372       .  S
C456        H460   1.084       .  S
O457        H462   0.992       .  S
O459        H463   0.992       .  S
C465        C466   1.403       .  A
C465        C470   1.395       .  A
C465        H475   1.083       .  S
C466        C471   1.482   1_554  S
C466        C467   1.412       .  A
C467        C468   1.399       .  A
C467        O472   1.372   1_554  S
C468        C469   1.401       .  A
C468        H473   1.084       .  S
C469        C470   1.408       .  A
C470        O474   1.373       .  S
C471        C476   1.414   1_556  A
C471        C480   1.397       .  A
O472        H488   0.992   1_556  S
O474        H485   0.992       .  S
C476        C477   1.405   1_554  A
C476        O481   1.373       .  S
C477        C478   1.402       .  A
C477        H482   1.083   1_556  S
C478        C479   1.419       .  A
C479        C480   1.388       .  A
C479        O483   1.372       .  S
C480        H484   1.083       .  S
O481        H486   0.992       .  S
O483        H487   0.992       .  S
C489        C490   1.408       .  A
C489        C494   1.410       .  A
C489        H499   1.083       .  S
C490        C495   1.495   1_655  S
C490        C491   1.408   1_655  A
C491        C492   1.402   1_455  A
C491        O496   1.372       .  S
C492        C493   1.407       .  A
C492        H497   1.084   1_655  S
C493        C494   1.410       .  A
C494        O498   1.371       .  S
C495        C500   1.407   1_455  A
C495        C504   1.407       .  A
O496        H512   0.992       .  S
O498        H509   0.992       .  S
C500        C501   1.404   1_655  A
C500        O505   1.372       .  S
C501        C502   1.413       .  A
C501        H506   1.083   1_455  S
C502        C503   1.413       .  A
C503        C504   1.407       .  A
C503        O507   1.371       .  S
C504        H508   1.083       .  S
O505        H510   0.992       .  S
O507        H511   0.992       .  S
C513        C514   1.409       .  A
C513        C518   1.406       .  A
C513        H523   1.083       .  S
C514        C519   1.493   1_556  S
C514        C515   1.409       .  A
C515        C516   1.399       .  A
C515        O520   1.372   1_556  S
C516        C517   1.409       .  A
C516        H521   1.084       .  S
C517        C518   1.408       .  A
C518        O522   1.371       .  S
C519        C524   1.412       .  A
C519        C528   1.405       .  A
O520        H536   0.992       .  S
O522        H533   0.991       .  S
C524        C525   1.402       .  A
C524        O529   1.371       .  S
C525        C526   1.404       .  A
C525        H530   1.083       .  S
C526        C527   1.414       .  A
C527        C528   1.401       .  A
C527        O531   1.372       .  S
C528        H532   1.083       .  S
O529        H534   0.992       .  S
O531        H535   0.992       .  S
C537        C538   1.409       .  A
C537        C542   1.410       .  A
C537        H547   1.083       .  S
C538        C543   1.497   1_554  S
C538        C539   1.408       .  A
C539        C540   1.401       .  A
C539        O544   1.372   1_554  S
C540        C541   1.408       .  A
C540        H545   1.084       .  S
C541        C542   1.413       .  A
C542        O546   1.372       .  S
C543        C548   1.411       .  A
C543        C552   1.404       .  A
O544        H560   0.992       .  S
O546        H557   0.992       .  S
C548        C549   1.408       .  A
C548        O553   1.371       .  S
C549        C550   1.407       .  A
C549        H554   1.083       .  S
C550        C551   1.415       .  A
C551        C552   1.403       .  A
C551        O555   1.372       .  S
C552        H556   1.083       .  S
O553        H558   0.992       .  S
O555        H559   0.992       .  S
C561        C562   1.404       .  A
C561        C566   1.406       .  A
C561        H571   1.084       .  S
C562        C567   1.480       .  S
C562        C563   1.402       .  A
C563        C564   1.396       .  A
C563        O568   1.372       .  S
C564        C565   1.410       .  A
C564        H569   1.083       .  S
C565        C566   1.415       .  A
C566        O570   1.372       .  S
C567        C572   1.402   1_545  A
C567        C576   1.404       .  A
O568        H584   0.992       .  S
O570        H581   0.992       .  S
C572        C573   1.397       .  A
C572        O577   1.372       .  S
C573        C574   1.410       .  A
C573        H578   1.083       .  S
C574        C575   1.414       .  A
C575        C576   1.405   1_565  A
C575        O579   1.371       .  S
C576        H580   1.084       .  S
O577        H582   0.992       .  S
O579        H583   0.992       .  S
C585        C586   1.405       .  A
C585        C590   1.404       .  A
C585        H595   1.083       .  S
C586        C591   1.488       .  S
C586        C587   1.406       .  A
C587        C588   1.401       .  A
C587        O592   1.372       .  S
C588        C589   1.410       .  A
C588        H593   1.083       .  S
C589        C590   1.413       .  A
C590        O594   1.372       .  S
C591        C596   1.409       .  A
C591        C600   1.403       .  A
O592        H608   0.992       .  S
O594        H605   0.992       .  S
C596        C597   1.403       .  A
C596        O601   1.372       .  S
C597        C598   1.406       .  A
C597        H602   1.083       .  S
C598        C599   1.413       .  A
C599        C600   1.404       .  A
C599        O603   1.372       .  S
C600        H604   1.084       .  S
O601        H606   0.992       .  S
O603        H607   0.992       .  S
C609        C610   1.410       .  A
C609        C614   1.407       .  A
C609        H619   1.083       .  S
C610        C615   1.493       .  S
C610        C611   1.408       .  A
C611        C612   1.399       .  A
C611        O616   1.371   1_455  S
C612        C613   1.406       .  A
C612        H617   1.084       .  S
C613        C614   1.408       .  A
C614        O618   1.372       .  S
C615        C620   1.407       .  A
C615        C624   1.409   1_455  A
O616        H632   0.992       .  S
O618        H629   0.992       .  S
C620        C621   1.401       .  A
C620        O625   1.372       .  S
C621        C622   1.408   1_455  A
C621        H626   1.084       .  S
C622        C623   1.410       .  A
C623        C624   1.406       .  A
C623        O627   1.372       .  S
C624        H628   1.083       .  S
O625        H630   0.992       .  S
O627        H631   0.992       .  S
C633        C634   1.405   1_655  A
C633        C638   1.398   1_655  A
C633        H643   1.083       .  S
C634        C639   1.491   1_456  S
C634        C635   1.413       .  A
C635        C636   1.402       .  A
C635        O640   1.371   1_556  S
C636        C637   1.402       .  A
C636        H641   1.084       .  S
C637        C638   1.405       .  A
C638        O642   1.368   1_455  S
C639        C644   1.408       .  A
C639        C648   1.410   1_544  A
O640        H656   0.992       .  S
O642        H653   0.992       .  S
C644        C645   1.398   1_545  A
C644        O649   1.372       .  S
C645        C646   1.407       .  A
C645        H650   1.084       .  S
C646        C647   1.407       .  A
C647        C648   1.406   1_554  A
C647        O651   1.371   1_554  S
C648        H652   1.083   1_655  S
O649        H654   0.992       .  S
O651        H655   0.992       .  S
C657        C658   1.405       .  A
C657        C662   1.404       .  A
C657        H667   1.083       .  S
C658        C663   1.488       .  S
C658        C659   1.405       .  A
C659        C660   1.400       .  A
C659        O664   1.372       .  S
C660        C661   1.411       .  A
C660        H665   1.083       .  S
C661        C662   1.413       .  A
C662        O666   1.371       .  S
C663        C668   1.404       .  A
C663        C672   1.407       .  A
O664        H680   0.992       .  S
O666        H677   0.992       .  S
C668        C669   1.399       .  A
C668        O673   1.372       .  S
C669        C670   1.411       .  A
C669        H674   1.083       .  S
C670        C671   1.413       .  A
C671        C672   1.405       .  A
C671        O675   1.371       .  S
C672        H676   1.084       .  S
O673        H678   0.992       .  S
O675        H679   0.992       .  S
C681        C682   1.404       .  A
C681        C686   1.403       .  A
C681        H691   1.084       .  S
C682        C687   1.482       .  S
C682        C683   1.405       .  A
C683        C684   1.400       .  A
C683        O688   1.372       .  S
C684        C685   1.409       .  A
C684        H689   1.084       .  S
C685        C686   1.411       .  A
C686        O690   1.371       .  S
C687        C692   1.408       .  A
C687        C696   1.399   1_565  A
O688        H704   0.992       .  S
O690        H701   0.992       .  S
C692        C693   1.404   1_565  A
C692        O697   1.372       .  S
C693        C694   1.407       .  A
C693        H698   1.083       .  S
C694        C695   1.418       .  A
C695        C696   1.400       .  A
C695        O699   1.372       .  S
C696        H700   1.084       .  S
O697        H702   0.992       .  S
O699        H703   0.992       .  S
C705        C706   1.404       .  A
C705        C710   1.403       .  A
C705        H715   1.084       .  S
C706        C711   1.486   1_554  S
C706        C707   1.405       .  A
C707        C708   1.401       .  A
C707        O712   1.372       .  S
C708        C709   1.411       .  A
C708        H713   1.083       .  S
C709        C710   1.415       .  A
C710        O714   1.371       .  S
C711        C716   1.403   1_556  A
C711        C720   1.406       .  A
O712        H728   0.992       .  S
O714        H725   0.992       .  S
C716        C717   1.399   1_554  A
C716        O721   1.372       .  S
C717        C718   1.413       .  A
C717        H722   1.083       .  S
C718        C719   1.413       .  A
C719        C720   1.408       .  A
C719        O723   1.371       .  S
C720        H724   1.083       .  S
O721        H726   0.992       .  S
O723        H727   0.992       .  S
C729        C730   1.406   1_554  A
C729        C734   1.408       .  A
C729        H739   1.084       .  S
C730        C735   1.482       .  S
C730        C731   1.402       .  A
C731        C732   1.398   1_556  A
C731        O736   1.372       .  S
C732        C733   1.410       .  A
C732        H737   1.084       .  S
C733        C734   1.412       .  A
C734        O738   1.372       .  S
C735        C740   1.402       .  A
C735        C744   1.404       .  A
O736        H752   0.992       .  S
O738        H749   0.992       .  S
C740        C741   1.398       .  A
C740        O745   1.372       .  S
C741        C742   1.410       .  A
C741        H746   1.083   1_655  S
C742        C743   1.414       .  A
C743        C744   1.407       .  A
C743        O747   1.371       .  S
C744        H748   1.083       .  S
O745        H750   0.992   1_556  S
O747        H751   0.992       .  S
