geometry optimzed in LAMMPS
_audit_creation_date              2020-12-01 
_audit_creation_method            'lammps2cif' 
_symmetry_space_group_name_H-M    'P1' 
_symmetry_Int_Tables_number       1 
_symmetry_cell_setting            triclinic 
loop_ 
_symmetry_equiv_pos_as_xyz 
  x,y,z 
_cell_length_a                    48.96460081 
_cell_length_b                    29.04397543718451 
_cell_length_c                    59.56014069267914 
_cell_angle_alpha                 90.24170256500987 
_cell_angle_beta                  89.9112580928108 
_cell_angle_gamma                 89.7494086654522 
loop_ 
_atom_site_label 
_atom_site_type_symbol 
_atom_site_fract_x 
_atom_site_fract_y 
_atom_site_fract_z 
_atom_site_charge 
Fe1        Fe  0.84660676  0.89977340  0.37196590     1.65800
Fe2        Fe  0.84927666  0.80467613  0.40396819     1.73200
Fe3        Fe  0.79146528  0.83089485  0.37488214     1.54400
O4          O  0.77787761  0.89647184  0.38318921    -0.81300
O5          O  0.83496788  0.74485521  0.38936835    -0.79600
O6          O  0.81101911  0.93769011  0.36850547    -0.83800
O7          O  0.84218730  0.87575680  0.33963169    -0.78600
O8          O  0.77980109  0.80974018  0.40682701    -0.80400
O9          O  0.88285047  0.80076824  0.38317850    -0.83100
C10         C  0.82033156  0.86153576  0.33037226     0.97600
C11         C  0.78703742  0.93460607  0.37627640     1.05100
O12         O  0.82901162  0.84450198  0.38358775    -1.12100
O13         O  0.86486587  0.86083417  0.42172390    -0.74600
O14         O  0.85071631  0.92470381  0.40425388    -0.78000
O15         O  0.79927821  0.84939831  0.34156604    -0.78700
C16         C  0.86011046  0.90408600  0.42144364     0.96500
O17         O  0.88601903  0.87354356  0.37302415    -0.76700
O18         O  0.81803637  0.80271156  0.42682044    -0.81900
C19         C  0.81613466  0.73405564  0.37568539     0.99100
C20         C  0.79226578  0.80106298  0.42507308     1.05100
O21         O  0.80062765  0.76363283  0.36648782    -0.77500
C22         C  0.89661984  0.83410507  0.37572214     1.03400
Fe23       Fe  0.84177539  0.08003141  0.61882841     1.65800
Fe24       Fe  0.84868498  0.17005487  0.58471834     1.73200
Fe25       Fe  0.78961984  0.15506150  0.61301221     1.54400
O26         O  0.77338473  0.09162263  0.60438285    -0.81300
O27         O  0.83347970  0.23391373  0.59569946    -0.79600
O28         O  0.80410162  0.04653882  0.62092920    -0.83800
O29         O  0.83607167  0.10802137  0.65007581    -0.78600
O30         O  0.78155486  0.17933335  0.58066807    -0.80400
O31         O  0.88057010  0.17644255  0.60681952    -0.83100
C32         C  0.81372229  0.12224777  0.65854381     0.97600
C33         C  0.78043710  0.05315542  0.61267971     1.05100
O34         O  0.82667534  0.13535503  0.60562399    -1.12100
O35         O  0.86569677  0.11110289  0.57016011    -0.74600
O36         O  0.84781148  0.05094008  0.58759995    -0.78000
O37         O  0.79354162  0.13454023  0.64642377    -0.78700
C38         C  0.85986519  0.06839105  0.57074939     0.96500
O39         O  0.88188709  0.10424131  0.61876458    -0.76700
O40         O  0.81906962  0.16458997  0.56114362    -0.81900
C41         C  0.81679163  0.24777494  0.61077366     0.99100
C42         C  0.79459666  0.17805764  0.56215016     1.05100
O43         O  0.80254167  0.21990048  0.62220796    -0.77500
C44         C  0.89345257  0.14265072  0.61508630     1.03400
Fe45       Fe  0.15369466  0.90955054  0.37296311     1.65800
Fe46       Fe  0.14811984  0.81258663  0.40428435     1.73200
Fe47       Fe  0.20731067  0.83585695  0.37616307     1.54400
O48         O  0.19935285  0.85022985  0.34233442    -0.81300
O49         O  0.17860075  0.80958634  0.42743869    -0.79600
O50         O  0.15995461  0.88902990  0.34034413    -0.83800
O51         O  0.18948206  0.94710565  0.37191537    -0.78600
O52         O  0.19862386  0.76774993  0.36974374    -0.80400
O53         O  0.13244336  0.86911013  0.42198935    -0.83100
C54         C  0.21398349  0.94070495  0.37784895     0.97600
C55         C  0.17998233  0.86846984  0.33095510     1.05100
O56         O  0.16973650  0.85201026  0.38426553    -1.12100
O57         O  0.11474773  0.81142124  0.38314067    -0.74600
O58         O  0.11417541  0.88404178  0.37191667    -0.78000
O59         O  0.22269119  0.90081875  0.38240875    -0.78700
C60         C  0.10221973  0.84594113  0.37511724     0.96500
O61         O  0.14798784  0.93255518  0.40526705    -0.76700
O62         O  0.16252718  0.75033543  0.39088970    -0.81900
C63         C  0.20443820  0.81062714  0.42686332     0.99100
C64         C  0.18294874  0.73860792  0.37883607     1.05100
O65         O  0.21780618  0.81963254  0.40904742    -0.77500
C66         C  0.13803033  0.91194156  0.42214364     1.03400
Fe67       Fe  0.14910820  0.08737553  0.62020481     1.65800
Fe68       Fe  0.14663027  0.18165596  0.58742226     1.73200
Fe69       Fe  0.20413943  0.15758574  0.61725028     1.54400
O70         O  0.19555915  0.14297258  0.65072212    -0.81300
O71         O  0.17775730  0.18127312  0.56437094    -0.79600
O72         O  0.15388386  0.11151890  0.65235730    -0.83800
O73         O  0.18479928  0.04875854  0.62326679    -0.78600
O74         O  0.19500074  0.22535973  0.62396743    -0.80400
O75         O  0.13059245  0.12490014  0.57049021    -0.83100
C76         C  0.20967398  0.05360753  0.61781480     0.97600
C77         C  0.17476850  0.12913211  0.66170629     1.05100
O78         O  0.16682812  0.14250389  0.60827300    -1.12100
O79         O  0.11337933  0.18684825  0.60854297    -0.74600
O80         O  0.10972768  0.11450193  0.61934634    -0.78000
O81         O  0.21901691  0.09192405  0.61139420    -0.78700
C82         C  0.09928129  0.15396206  0.61612345     0.96500
O83         O  0.14417534  0.06192552  0.58831236    -0.76700
O84         O  0.16114982  0.24320331  0.60067962    -0.81900
C85         C  0.20350642  0.18265809  0.56640057     0.99100
C86         C  0.17995591  0.25474937  0.61425789     1.05100
O87         O  0.21582319  0.17511421  0.58485525    -0.77500
C88         C  0.13477387  0.08154897  0.57091519     1.03400
Fe89       Fe  0.35119221  0.40347793  0.37207466     1.65800
Fe90       Fe  0.35292808  0.31579292  0.40846212     1.73200
Fe91       Fe  0.29579043  0.33584244  0.37824249     1.54400
O92         O  0.28218784  0.40256008  0.38462415    -0.81300
O93         O  0.33517937  0.25326753  0.39905928    -0.79600
O94         O  0.31550044  0.44221166  0.36871107    -0.83800
O95         O  0.34527419  0.37578844  0.34055124    -0.78600
O96         O  0.28544007  0.31650081  0.41120053    -0.80400
O97         O  0.38475877  0.30257749  0.38685807    -0.83100
C98         C  0.32279747  0.36232257  0.33211847     0.97600
C99         C  0.29133592  0.43985876  0.37644600     1.05100
O100        O  0.33330533  0.35118082  0.38599321    -1.12100
O101        O  0.37271529  0.37301887  0.42199172    -0.74600
O102        O  0.35700584  0.43355788  0.40319204    -0.78000
O103        O  0.30215122  0.35144260  0.34414612    -0.78700
C104        C  0.36755867  0.41590663  0.42067040     0.96500
O105        O  0.38987763  0.37306235  0.37321865    -0.76700
O106        O  0.32274609  0.32769534  0.43142336    -0.81900
C107        C  0.31828523  0.23971264  0.38421673     0.99100
C108        C  0.29787724  0.31665107  0.43003866     1.05100
O109        O  0.30579585  0.26798080  0.37155904    -0.77500
C110        C  0.39924917  0.33310576  0.37753250     1.03400
Fe111      Fe  0.34819699  0.58515614  0.61793154     1.65800
Fe112      Fe  0.34734125  0.68252617  0.58745529     1.73200
Fe113      Fe  0.29113418  0.64978148  0.61650208     1.54400
O114        O  0.27951006  0.58473229  0.60675929    -0.81300
O115        O  0.32882484  0.74132804  0.60184189    -0.79600
O116        O  0.31333250  0.54426899  0.62124361    -0.83800
O117        O  0.34352269  0.60695943  0.65044828    -0.78600
O118        O  0.27897018  0.67387566  0.58499936    -0.80400
O119        O  0.38001542  0.68924941  0.60896283    -0.83100
C120        C  0.32128903  0.61821751  0.66010448     0.97600
C121        C  0.28879253  0.54730168  0.61447193     1.05100
O122        O  0.32877334  0.63961457  0.60727519    -1.12100
O123        O  0.36623330  0.62848567  0.56937807    -0.74600
O124        O  0.35316262  0.56276347  0.58545764    -0.78000
O125        O  0.29950558  0.62827008  0.64934096    -0.78700
C126        C  0.36264425  0.58484069  0.56876521     0.96500
O127        O  0.38654484  0.61561079  0.61683883    -0.76700
O128        O  0.31685909  0.68021044  0.56429008    -0.81900
C129        C  0.31006821  0.74849478  0.61640350     0.99100
C130        C  0.29123954  0.68292249  0.56667469     1.05100
O131        O  0.29861711  0.71593924  0.62687219    -0.77500
C132        C  0.39538877  0.65647524  0.61510084     1.03400
Fe133      Fe  0.65413386  0.40511047  0.36895233     1.65800
Fe134      Fe  0.65150059  0.31303544  0.40321624     1.73200
Fe135      Fe  0.70868308  0.33422690  0.37244702     1.54400
O136        O  0.70064915  0.35018809  0.33898851    -0.81300
O137        O  0.68308712  0.31369821  0.42555355    -0.79600
O138        O  0.65808009  0.37881551  0.33699669    -0.83800
O139        O  0.68983905  0.44142994  0.36434078    -0.78600
O140        O  0.69896043  0.26643749  0.36606942    -0.80400
O141        O  0.63651708  0.37123673  0.41976183    -0.83100
C142        C  0.71416684  0.43738729  0.37119040     0.97600
C143        C  0.67979413  0.36329397  0.32784827     1.05100
O144        O  0.67144962  0.35008366  0.38141327    -1.12100
O145        O  0.61728269  0.30813397  0.38323389    -0.74600
O146        O  0.61481348  0.37976610  0.37083916    -0.78000
O147        O  0.72300197  0.39964832  0.37887998    -0.78700
C148        C  0.60381242  0.34136432  0.37505933     0.96500
O149        O  0.65060297  0.43296821  0.40082362    -0.76700
O150        O  0.66561932  0.25053186  0.39029644    -0.81900
C151        C  0.70867736  0.31024613  0.42305889     0.99100
C152        C  0.68423277  0.23775747  0.37663227     1.05100
O153        O  0.72072427  0.31598576  0.40440770    -0.77500
C154        C  0.64168490  0.41416571  0.41866673     1.03400
Fe155      Fe  0.65154292  0.57911046  0.61918169     1.65800
Fe156      Fe  0.64824341  0.67617397  0.58854003     1.73200
Fe157      Fe  0.70671042  0.64708228  0.61577372     1.54400
O158        O  0.69898068  0.62905268  0.64928325    -0.81300
O159        O  0.67812379  0.67760435  0.56491164    -0.79600
O160        O  0.65598516  0.60248357  0.65154220    -0.83800
O161        O  0.68714737  0.54074366  0.62324475    -0.78600
O162        O  0.69890638  0.71461418  0.62419700    -0.80400
O163        O  0.63205321  0.62022762  0.57082568    -0.83100
C164        C  0.71134136  0.54399598  0.61594944     0.97600
C165        C  0.67798782  0.61678218  0.66062171     1.05100
O166        O  0.66892925  0.63496510  0.60799845    -1.12100
O167        O  0.61539196  0.67935387  0.61018994    -0.74600
O168        O  0.61200201  0.60516823  0.61763049    -0.78000
O169        O  0.71971053  0.58135067  0.60760705    -0.78700
C170        C  0.60124657  0.64470071  0.61552871     0.96500
O171        O  0.64813471  0.55602096  0.58660250    -0.76700
O172        O  0.66425398  0.73684094  0.60243654    -0.81900
C173        C  0.70389973  0.67792907  0.56576030     0.99100
C174        C  0.68475686  0.74584544  0.61488631     1.05100
O175        O  0.71742450  0.66732795  0.58327438    -0.77500
C176        C  0.63872943  0.57766850  0.56968946     1.03400
Fe177      Fe  0.84124056  0.91880465  0.11859158     1.65800
Fe178      Fe  0.84443742  0.82328359  0.08654126     1.73200
Fe179      Fe  0.78728927  0.84778967  0.11680921     1.54400
O180        O  0.79604335  0.86596576  0.15013828    -0.81300
O181        O  0.81343731  0.82562923  0.06366507    -0.79600
O182        O  0.83830997  0.89563128  0.15099051    -0.83800
O183        O  0.80530017  0.95574436  0.12301272    -0.78600
O184        O  0.79803559  0.78175575  0.12491323    -0.80400
O185        O  0.86123464  0.87974649  0.07001270    -0.83100
C186        C  0.78075894  0.95113877  0.11675655     0.97600
C187        C  0.81740674  0.87901254  0.16071866     1.05100
O188        O  0.82423004  0.86266371  0.10747939    -1.12100
O189        O  0.87814336  0.81861118  0.10769761    -0.74600
O190        O  0.88060837  0.89259653  0.11665093    -0.78000
O191        O  0.77200680  0.91275791  0.10960899    -0.78700
C192        C  0.89180746  0.85340593  0.11417404     0.96500
O193        O  0.84355496  0.94256225  0.08609062    -0.76700
O194        O  0.82792884  0.76123273  0.09856478    -0.81900
C195        C  0.78800250  0.81921484  0.06597309     0.99100
C196        C  0.80924901  0.75132464  0.11268162     1.05100
O197        O  0.77560289  0.82560866  0.08461728    -0.77500
C198        C  0.85359315  0.92174014  0.06911442     1.03400
Fe199      Fe  0.84372862  0.08844782  0.86792058     1.65800
Fe200      Fe  0.84806903  0.18267908  0.90128788     1.73200
Fe201      Fe  0.78930328  0.15911539  0.87278186     1.54400
O202        O  0.79683002  0.14359870  0.83913094    -0.81300
O203        O  0.81727632  0.18626927  0.92439729    -0.79600
O204        O  0.83925304  0.11424626  0.83612385    -0.83800
O205        O  0.80771179  0.05154784  0.86383178    -0.78600
O206        O  0.79821766  0.22716507  0.86632832    -0.80400
O207        O  0.86207715  0.12451844  0.91845272    -0.83100
C208        C  0.78339525  0.05547431  0.87096304     0.97600
C209        C  0.81743905  0.13042391  0.82755170     1.05100
O210        O  0.82699747  0.14417045  0.88056664    -1.12100
O211        O  0.88221824  0.18484259  0.88086648    -0.74600
O212        O  0.88354288  0.11283664  0.86896104    -0.78000
O213        O  0.77489296  0.09331847  0.87897743    -0.78700
C214        C  0.89525308  0.15094037  0.87272120     0.96500
O215        O  0.84740934  0.06220904  0.89983431    -0.76700
O216        O  0.83447790  0.24467153  0.88737293    -0.81900
C217        C  0.79149716  0.18644176  0.92323676     0.99100
C218        C  0.81447798  0.25634992  0.87487834     1.05100
O219        O  0.77849630  0.17677608  0.90536453    -0.77500
C220        C  0.85601298  0.08175482  0.91764020     1.03400
Fe221      Fe  0.14839445  0.91718491  0.12093306     1.65800
Fe222      Fe  0.14493684  0.82440920  0.08657373     1.73200
Fe223      Fe  0.20419437  0.84924143  0.11377836     1.54400
O224        O  0.21682535  0.91555264  0.10812378    -0.81300
O225        O  0.15990660  0.76304842  0.09949029    -0.79600
O226        O  0.18359153  0.95681450  0.12340141    -0.83800
O227        O  0.15534172  0.89073215  0.15254347    -0.78600
O228        O  0.21402428  0.83530094  0.08042372    -0.80400
O229        O  0.11260277  0.81871158  0.10820460    -0.83100
C230        C  0.17748097  0.87397682  0.16037653     0.97600
C231        C  0.20750506  0.95339904  0.11539415     1.05100
O232        O  0.16595157  0.86303419  0.10719614    -1.12100
O233        O  0.12863492  0.88224717  0.07037272    -0.74600
O234        O  0.14264094  0.94437638  0.08950695    -0.78000
O235        O  0.19774454  0.86174433  0.14809822    -0.78700
C236        C  0.13380559  0.92524548  0.07172858     0.96500
O237        O  0.10880711  0.89007080  0.12068867    -0.76700
O238        O  0.17472024  0.82376278  0.06262814    -0.81900
C239        C  0.18048964  0.75122117  0.11116186     0.99100
C240        C  0.20049417  0.82612091  0.06273188     1.05100
O241        O  0.19707546  0.78037809  0.11922873    -0.77500
C242        C  0.09843647  0.85098642  0.11643280     1.03400
Fe243      Fe  0.15051702  0.09354625  0.87468484     1.65800
Fe244      Fe  0.14802626  0.19191192  0.90427691     1.73200
Fe245      Fe  0.20417660  0.16655376  0.87328440     1.54400
O246        O  0.22049770  0.10342437  0.88168129    -0.81300
O247        O  0.16495721  0.25259477  0.89146950    -0.79600
O248        O  0.18665258  0.05600821  0.87266196    -0.83800
O249        O  0.15397175  0.11118715  0.84146001    -0.78600
O250        O  0.21627042  0.19194089  0.90471382    -0.80400
O251        O  0.11516312  0.19666518  0.88287040    -0.83100
C252        C  0.17437042  0.12766203  0.83100946     0.97600
C253        C  0.21145390  0.06352564  0.87752189     1.05100
O254        O  0.16773610  0.15092109  0.88385941    -1.12100
O255        O  0.12958093  0.13776619  0.92162492    -0.74600
O256        O  0.14759086  0.07361949  0.90777541    -0.78000
O257        O  0.19530045  0.14425553  0.84082857    -0.78700
C258        C  0.13646093  0.09568486  0.92381501     0.96500
O259        O  0.11112111  0.12196770  0.87508300    -0.76700
O260        O  0.17922610  0.18919533  0.92672902    -0.81900
C261        C  0.18186901  0.26227395  0.87597155     0.99100
C262        C  0.20439432  0.19688486  0.92367182     1.05100
O263        O  0.19209623  0.23117678  0.86358520    -0.77500
C264        C  0.10106999  0.16245562  0.87645099     1.03400
Fe265      Fe  0.34401807  0.41851124  0.11997645     1.65800
Fe266      Fe  0.34811444  0.32518073  0.08642366     1.73200
Fe267      Fe  0.28971020  0.34777870  0.11533042     1.54400
O268        O  0.29623382  0.36466217  0.14944044    -0.81300
O269        O  0.31874951  0.32876455  0.06239515    -0.79600
O270        O  0.33807852  0.39421204  0.15199595    -0.83800
O271        O  0.30814470  0.45727349  0.12169645    -0.78600
O272        O  0.29934857  0.28021193  0.12256317    -0.80400
O273        O  0.36675688  0.38193935  0.07120514    -0.83100
C274        C  0.28393853  0.45184575  0.11459109     0.97600
C275        C  0.31660906  0.37831839  0.16116892     1.05100
O276        O  0.32708484  0.36348821  0.10730383    -1.12100
O277        O  0.37911913  0.31755795  0.10907298    -0.74600
O278        O  0.38333405  0.39027668  0.12000231    -0.78000
O279        O  0.27506838  0.41288279  0.10848430    -0.78700
C280        C  0.39322890  0.35019186  0.11691976     0.96500
O281        O  0.34942332  0.44402213  0.08824709    -0.76700
O282        O  0.33142177  0.26346940  0.09732362    -0.81900
C283        C  0.29311123  0.32403949  0.06368814     0.99100
C284        C  0.31296122  0.25122054  0.11105271     1.05100
O285        O  0.28006845  0.32884770  0.08219348    -0.77500
C286        C  0.36003186  0.42436295  0.07127055     1.03400
Fe287      Fe  0.34185319  0.59274236  0.87441009     1.65800
Fe288      Fe  0.34551558  0.69155141  0.90353387     1.73200
Fe289      Fe  0.28939089  0.66774137  0.87239960     1.54400
O290        O  0.29755254  0.64255065  0.84020504    -0.81300
O291        O  0.31400429  0.69111678  0.92596044    -0.79600
O292        O  0.33890101  0.60951830  0.84089334    -0.83800
O293        O  0.30524498  0.55705873  0.87268847    -0.78600
O294        O  0.30325551  0.73046351  0.86174063    -0.80400
O295        O  0.36325398  0.63726877  0.92130564    -0.83100
C296        C  0.28061496  0.56574252  0.87789742     0.97600
C297        C  0.31835961  0.62533220  0.83028345     1.05100
O298        O  0.32545989  0.65092728  0.88326507    -1.12100
O299        O  0.37873303  0.69410569  0.88224063    -0.74600
O300        O  0.38140294  0.61912477  0.87484143    -0.78000
O301        O  0.27207597  0.60617429  0.88194821    -0.78700
C302        C  0.39235553  0.65872501  0.87634924     0.96500
O303        O  0.34430014  0.57408845  0.90767551    -0.76700
O304        O  0.32923425  0.75214872  0.89019939    -0.81900
C305        C  0.28910153  0.70077894  0.92244605     0.99100
C306        C  0.31283175  0.76160013  0.87433075     1.05100
O307        O  0.27763396  0.69604871  0.90335859    -0.77500
C308        C  0.35589007  0.59558855  0.92360182     1.03400
Fe309      Fe  0.64940355  0.41541388  0.11799600     1.65800
Fe310      Fe  0.64298075  0.32205565  0.08516897     1.73200
Fe311      Fe  0.70274766  0.34263504  0.11217222     1.54400
O312        O  0.71773400  0.40715518  0.10398125    -0.81300
O313        O  0.65796195  0.25974484  0.09736388    -0.79600
O314        O  0.68600909  0.45107932  0.11995407    -0.83800
O315        O  0.65542503  0.38976449  0.14962757    -0.78600
O316        O  0.71150692  0.32051127  0.07940813    -0.80400
O317        O  0.61091638  0.31807236  0.10745382    -0.83100
C318        C  0.67755183  0.37474502  0.15810977     0.97600
C319        C  0.70976582  0.44558439  0.11184808     1.05100
O320        O  0.66513003  0.35953099  0.10519130    -1.12100
O321        O  0.62635762  0.37948611  0.06958191    -0.74600
O322        O  0.64338306  0.44144274  0.08629229    -0.78000
O323        O  0.69774702  0.36207106  0.14589166    -0.78700
C324        C  0.63228782  0.42214844  0.06942688     0.96500
O325        O  0.60976390  0.39095451  0.11839182    -0.76700
O326        O  0.67226421  0.32334837  0.06091247    -0.81900
C327        C  0.67637689  0.24753826  0.11120908     0.99100
C328        C  0.69777007  0.31683656  0.06130873     1.05100
O329        O  0.69202356  0.27630578  0.12081699    -0.77500
C330        C  0.59813189  0.35254609  0.11529048     1.03400
Fe331      Fe  0.64738763  0.59051548  0.87062414     1.65800
Fe332      Fe  0.64481255  0.68534168  0.90332987     1.73200
Fe333      Fe  0.70330803  0.65793825  0.87550116     1.54400
O334        O  0.71607666  0.59139799  0.88284663    -0.81300
O335        O  0.66040744  0.74588543  0.88982044    -0.79600
O336        O  0.68293923  0.55124056  0.86722318    -0.83800
O337        O  0.65308620  0.61505922  0.83882930    -0.78600
O338        O  0.71388518  0.67829652  0.90812944    -0.80400
O339        O  0.61259505  0.69094144  0.88158292    -0.83100
C340        C  0.67548395  0.62841210  0.83019074     0.97600
C341        C  0.70718689  0.55401139  0.87456302     1.05100
O342        O  0.66534829  0.64510334  0.88314359    -1.12100
O343        O  0.62815736  0.62862646  0.92024385    -0.74600
O344        O  0.64242824  0.56496884  0.90238205    -0.78000
O345        O  0.69627257  0.64022571  0.84183739    -0.78700
C346        C  0.63319234  0.58535625  0.91975014     0.96500
O347        O  0.60779489  0.61830507  0.87137697    -0.76700
O348        O  0.67469076  0.68589659  0.92695195    -0.81900
C349        C  0.67990697  0.75639500  0.87663969     0.99100
C350        C  0.70046449  0.68744684  0.92599307     1.05100
O351        O  0.69537158  0.72609378  0.86773897    -0.77500
C352        C  0.59799593  0.65846420  0.87432509     1.03400
C353        C  0.60988089  0.45154611  0.00941957    -0.05100
C354        C  0.62421037  0.49262272  0.00561069     0.09100
C355        C  0.63882690  0.51327062  0.02327487    -0.02400
C356        C  0.64061112  0.49170896  0.04439975    -0.00700
C357        C  0.62702269  0.44916624  0.04830332    -0.04300
C358        C  0.61052920  0.43060904  0.03075614     0.02700
C359        C  0.62502212  0.51322546  0.98265289     0.09500
C360        C  0.65277221  0.55657960  0.01958007     0.35400
C361        C  0.59390268  0.38991882  0.03425551     0.38900
C362        C  0.60406316  0.54305939  0.97541427    -0.04700
C363        C  0.60586408  0.56467059  0.95426895     0.02500
C364        C  0.62922930  0.55794260  0.94060422    -0.04300
C365        C  0.64991374  0.52695311  0.94778341    -0.00500
C366        C  0.64738725  0.50383359  0.96843176    -0.03100
C367        C  0.58079534  0.55183114  0.98992636     0.36200
C368        C  0.67499858  0.52144584  0.93502096     0.39800
C369        C  0.58340080  0.59296814  0.94641428     0.38900
C370        C  0.66799659  0.47066456  0.97526863     0.35900
C371        C  0.59525237  0.43001298  0.99102716     0.36500
C372        C  0.65734184  0.51325466  0.06153785     0.39800
N373        N  0.56532680  0.61519476  0.94008272    -0.38300
N374        N  0.56230242  0.55872603  0.00159346    -0.39900
N375        N  0.69531945  0.51713602  0.92529719    -0.37600
N376        N  0.68427379  0.44389606  0.98067301    -0.40000
N377        N  0.66397782  0.59110309  0.01710681    -0.39800
N378        N  0.67076462  0.53084490  0.07507164    -0.37400
N379        N  0.58062958  0.35756602  0.03689927    -0.38500
N380        N  0.58377968  0.41270987  0.97626062    -0.40100
C381        C  0.46262522  0.70338947  0.85842764    -0.05100
C382        C  0.48002449  0.67044719  0.86838292     0.09100
C383        C  0.46866890  0.63344879  0.88039814    -0.02400
C384        C  0.44014224  0.62944910  0.88267519    -0.00700
C385        C  0.42247003  0.66243987  0.87278007    -0.04300
C386        C  0.43391743  0.69934065  0.86051511     0.02700
C387        C  0.51049622  0.67501910  0.86743407     0.09500
C388        C  0.48656570  0.59997931  0.89097918     0.35400
C389        C  0.41621412  0.73257626  0.84963349     0.38900
C390        C  0.52435347  0.69573601  0.88553037    -0.04700
C391        C  0.55299328  0.69177360  0.88730631     0.02500
C392        C  0.56818486  0.66719062  0.87079183    -0.04300
C393        C  0.55434018  0.64911493  0.85187602    -0.00500
C394        C  0.52559451  0.65299913  0.85025520    -0.03100
C395        C  0.50886025  0.71943843  0.90290298     0.36200
C396        C  0.56956515  0.62665348  0.83400575     0.39800
C397        C  0.56642697  0.71060289  0.90700302     0.38900
C398        C  0.51133083  0.63317386  0.83124704     0.35900
C399        C  0.47433785  0.74177114  0.84634570     0.36500
C400        C  0.42922238  0.59225043  0.89617188     0.39800
N401        N  0.57710652  0.72555926  0.92273400    -0.38300
N402        N  0.49646572  0.73830320  0.91673864    -0.39900
N403        N  0.58157589  0.60876977  0.81964303    -0.37600
N404        N  0.49983602  0.61749200  0.81609062    -0.40000
N405        N  0.50092255  0.57351277  0.89945340    -0.39800
N406        N  0.42063932  0.56252323  0.90692638    -0.37400
N407        N  0.40204658  0.75899647  0.84090757    -0.38500
N408        N  0.48368189  0.77249265  0.83675158    -0.40100
C409        C  0.46736468  0.32251406  0.10419316    -0.05100
C410        C  0.48038711  0.33831174  0.12382235     0.09100
C411        C  0.46461135  0.35387858  0.14221999    -0.02400
C412        C  0.43585438  0.35595117  0.14050407    -0.00700
C413        C  0.42287963  0.34242401  0.12036639    -0.04300
C414        C  0.43875877  0.32461872  0.10240533     0.02700
C415        C  0.51073156  0.34323633  0.12380001     0.09500
C416        C  0.47805289  0.36885120  0.16263573     0.35400
C417        C  0.42593102  0.31123622  0.08141540     0.38900
C418        C  0.52241066  0.38179536  0.11325978    -0.04700
C419        C  0.55092480  0.38499917  0.11089536     0.02500
C420        C  0.56816625  0.34960712  0.11921366    -0.04300
C421        C  0.55636273  0.31084936  0.12972839    -0.00500
C422        C  0.52768641  0.30766930  0.13192555    -0.03100
C423        C  0.50486463  0.41696229  0.10359820     0.36200
C424        C  0.57361032  0.27407776  0.13813779     0.39800
C425        C  0.56219196  0.42337666  0.09840030     0.38900
C426        C  0.51545837  0.26689678  0.14156996     0.35900
C427        C  0.48364975  0.30614929  0.08537146     0.36500
C428        C  0.41964486  0.37170274  0.15945323     0.39800
N429        N  0.57098662  0.45394665  0.08834372    -0.38300
N430        N  0.49086700  0.44463460  0.09564406    -0.39900
N431        N  0.58735924  0.24461570  0.14476190    -0.37600
N432        N  0.50559642  0.23424791  0.14907556    -0.40000
N433        N  0.48876170  0.38069821  0.17896530    -0.39800
N434        N  0.40674374  0.38404195  0.17464121    -0.37400
N435        N  0.41572527  0.30065081  0.06466661    -0.38500
N436        N  0.49674737  0.29336955  0.07038513    -0.40100
C437        C  0.38897697  0.48388015  0.01942223    -0.05100
C438        C  0.36475776  0.50070232  0.00947900     0.09100
C439        C  0.33933779  0.49207728  0.01974111    -0.02400
C440        C  0.33809923  0.46731802  0.03997133    -0.00700
C441        C  0.36232084  0.45108023  0.05020625    -0.04300
C442        C  0.38777749  0.45891867  0.03974267     0.02700
C443        C  0.36553468  0.52539746  0.98747743     0.09500
C444        C  0.31430849  0.50711585  0.00894393     0.35400
C445        C  0.41263930  0.44134501  0.04981790     0.38900
C446        C  0.36539845  0.50003019  0.96729736    -0.04700
C447        C  0.36288465  0.52269064  0.94648483     0.02500
C448        C  0.36074367  0.57153210  0.94557770    -0.04300
C449        C  0.36180131  0.59691191  0.96609867    -0.00500
C450        C  0.36408966  0.57379373  0.98684438    -0.03100
C451        C  0.36725497  0.45016530  0.96807808     0.36200
C452        C  0.35925344  0.64674986  0.96635579     0.39800
C453        C  0.36227746  0.49502094  0.92614974     0.38900
C454        C  0.36421993  0.59973447  0.00774012     0.35900
C455        C  0.41498281  0.49164453  0.00843896     0.36500
C456        C  0.31164937  0.45522263  0.04928094     0.39800
N457        N  0.36150582  0.47274603  0.91000551    -0.38300
N458        N  0.36882993  0.41043661  0.96878881    -0.39900
N459        N  0.35730065  0.68648214  0.96677432    -0.37600
N460        N  0.36424533  0.62037868  0.02440412    -0.40000
N461        N  0.29434125  0.51887322  0.00027507    -0.39800
N462        N  0.29059236  0.44503473  0.05653335    -0.37400
N463        N  0.43254190  0.42728012  0.05775802    -0.38500
N464        N  0.43563359  0.49780180  0.99948413    -0.40100
C465        C  0.24966555  0.95635086  0.89644904    -0.05100
C466        C  0.26461928  0.94502140  0.87684674     0.09100
C467        C  0.26349479  0.97444844  0.85809776    -0.02400
C468        C  0.24619767  0.01342559  0.85838489    -0.00700
C469        C  0.23066535  0.02404412  0.87774779    -0.04300
C470        C  0.23274528  0.99585208  0.89690058     0.02700
C471        C  0.27802117  0.89875008  0.87470277     0.09500
C472        C  0.27963863  0.96372363  0.83830704     0.35400
C473        C  0.21680865  0.00683433  0.91679138     0.38900
C474        C  0.26186088  0.86049183  0.86900415    -0.04700
C475        C  0.27336955  0.81602180  0.86840853     0.02500
C476        C  0.30178866  0.80947383  0.87221305    -0.04300
C477        C  0.31827529  0.84846756  0.87656747    -0.00500
C478        C  0.30632132  0.89285317  0.87814096    -0.03100
C479        C  0.23313015  0.86704304  0.86379552     0.36200
C480        C  0.34754997  0.84312148  0.87918223     0.39800
C481        C  0.25524641  0.77701969  0.86538183     0.38900
C482        C  0.32302618  0.93252022  0.88338191     0.35900
C483        C  0.25121142  0.92663179  0.91592438     0.36500
C484        C  0.24326800  0.04118778  0.83833153     0.39800
N485        N  0.24068553  0.74605544  0.86312511    -0.38300
N486        N  0.21031439  0.87245105  0.85945654    -0.39900
N487        N  0.37093286  0.83888605  0.88117744    -0.37600
N488        N  0.33631300  0.96428607  0.88753109    -0.40000
N489        N  0.29277599  0.95511406  0.82266396    -0.39800
N490        N  0.24076153  0.06293645  0.82222124    -0.37400
N491        N  0.20399564  0.01571933  0.93258507    -0.38500
N492        N  0.25247067  0.90292321  0.93146444    -0.40100
C493        C  0.23023188  0.47569667  0.85772217    -0.05100
C494        C  0.22774597  0.44754393  0.87687691     0.09100
C495        C  0.24114381  0.46031170  0.89696363    -0.02400
C496        C  0.25817636  0.49945659  0.89749817    -0.00700
C497        C  0.26101142  0.52704779  0.87820426    -0.04300
C498        C  0.24658136  0.51560254  0.85846040     0.02700
C499        C  0.21488922  0.40085927  0.87493882     0.09500
C500        C  0.23814504  0.43204491  0.91682740     0.35400
C501        C  0.24964781  0.54379103  0.83855546     0.38900
C502        C  0.23166375  0.36262985  0.87002081    -0.04700
C503        C  0.22065874  0.31787183  0.86954055     0.02500
C504        C  0.19236328  0.31058799  0.87368462    -0.04300
C505        C  0.17540378  0.34944342  0.87788059    -0.00500
C506        C  0.18668127  0.39433372  0.87847125    -0.03100
C507        C  0.26061286  0.36951794  0.86595581     0.36200
C508        C  0.14638260  0.34345634  0.88152480     0.39800
C509        C  0.23925424  0.27933152  0.86611978     0.38900
C510        C  0.16935427  0.43393558  0.88296108     0.35900
C511        C  0.21707954  0.46225015  0.83693174     0.36500
C512        C  0.27380758  0.51013851  0.91751486     0.39800
N513        N  0.25422558  0.24889387  0.86342312    -0.38300
N514        N  0.28367548  0.37534885  0.86275964    -0.39900
N515        N  0.12317983  0.33871028  0.88449220    -0.37600
N516        N  0.15558366  0.46560770  0.88648590    -0.40000
N517        N  0.23562497  0.40948491  0.93266054    -0.39800
N518        N  0.28651008  0.51845199  0.93338790    -0.37400
N519        N  0.25220180  0.56631092  0.82271166    -0.38500
N520        N  0.20670761  0.45140626  0.82029378    -0.40100
C521        C  0.27692860  0.30225911  0.00169714    -0.05100
C522        C  0.25585556  0.26980307  0.00337192     0.09100
C523        C  0.24591510  0.25680289  0.02459615    -0.02400
C524        C  0.25689308  0.27660692  0.04426492    -0.00700
C525        C  0.27857209  0.30885506  0.04285062    -0.04300
C526        C  0.28865262  0.32109149  0.02123575     0.02700
C527        C  0.24333448  0.25088166  0.98252845     0.09500
C528        C  0.22483756  0.22197044  0.02613810     0.35400
C529        C  0.31178747  0.35160522  0.01859585     0.38900
C530        C  0.25378811  0.21041190  0.97239648    -0.04700
C531        C  0.24178287  0.19305349  0.95256942     0.02500
C532        C  0.21937091  0.21631405  0.94295225    -0.04300
C533        C  0.20967003  0.25779662  0.95271807    -0.00500
C534        C  0.22156430  0.27486669  0.97247604    -0.03100
C535        C  0.27683184  0.18680825  0.98245814     0.36200
C536        C  0.18761934  0.28357906  0.94229790     0.39800
C537        C  0.25189364  0.15078851  0.94246112     0.38900
C538        C  0.21149109  0.31735564  0.98246976     0.35900
C539        C  0.28681156  0.31568079  0.97966051     0.36500
C540        C  0.24683950  0.26133845  0.06590596     0.39800
N541        N  0.25992970  0.11706837  0.93434130    -0.38300
N542        N  0.29527365  0.16817839  0.99053639    -0.39900
N543        N  0.17008115  0.30455936  0.93422971    -0.37600
N544        N  0.20347739  0.35128574  0.99038405    -0.40000
N545        N  0.20820324  0.19390129  0.02735264    -0.39800
N546        N  0.23891196  0.24933935  0.08322549    -0.37400
N547        N  0.33065357  0.37469729  0.01574874    -0.38500
N548        N  0.29456506  0.32625586  0.96206230    -0.30500
C549        C  0.25042528  0.77028460  0.02164739    -0.05100
C550        C  0.23777316  0.78000135  0.00096183     0.09100
C551        C  0.21442760  0.80827733  0.00026606    -0.02400
C552        C  0.20298042  0.82550798  0.02032923    -0.00700
C553        C  0.21500467  0.81461116  0.04138585    -0.04300
C554        C  0.23915289  0.78744185  0.04181095     0.02700
C555        C  0.24942860  0.76095308  0.97975037     0.09500
C556        C  0.20201947  0.81903938  0.97877202     0.35400
C557        C  0.25165026  0.77448705  0.06296482     0.38900
C558        C  0.23853211  0.72058936  0.97001599    -0.04700
C559        C  0.25068586  0.70141660  0.95059085     0.02500
C560        C  0.27393859  0.72238185  0.94117191    -0.04300
C561        C  0.28386350  0.76411137  0.95033111    -0.00500
C562        C  0.27153754  0.78339410  0.96949543    -0.03100
C563        C  0.21498063  0.69880893  0.98016088     0.36200
C564        C  0.30660072  0.78783629  0.93990627     0.39800
C565        C  0.23974352  0.65971501  0.94068745     0.38900
C566        C  0.28151836  0.82652562  0.97867437     0.35900
C567        C  0.27472216  0.74148552  0.02217112     0.36500
C568        C  0.17852576  0.85376089  0.01899520     0.39800
N569        N  0.23089217  0.62654965  0.93275069    -0.38300
N570        N  0.19610185  0.68176714  0.98830570    -0.39900
N571        N  0.32469543  0.80726807  0.93185282    -0.37600
N572        N  0.28942645  0.86101177  0.98590765    -0.40000
N573        N  0.19222087  0.82737200  0.96158411    -0.39800
N574        N  0.15880374  0.87561272  0.01748180    -0.37400
N575        N  0.26160789  0.76411173  0.07982432    -0.38500
N576        N  0.29409083  0.71852165  0.02259509    -0.40100
C577        C  0.15296743  0.99820811  0.02139556    -0.05100
C578        C  0.12762088  0.00294451  0.01033771     0.09100
C579        C  0.10386640  0.98421590  0.02017916    -0.02400
C580        C  0.10563953  0.95939023  0.04050796    -0.00700
C581        C  0.13110099  0.95376401  0.05123641    -0.04300
C582        C  0.15473050  0.97365315  0.04169356     0.02700
C583        C  0.12644177  0.02717363  0.98813589     0.09500
C584        C  0.07760072  0.99100560  0.00949036     0.35400
C585        C  0.18128479  0.96645382  0.05194426     0.38900
C586        C  0.12458393  0.00166276  0.96799219    -0.04700
C587        C  0.12713085  0.02383366  0.94699324     0.02500
C588        C  0.13166560  0.07211396  0.94590241    -0.04300
C589        C  0.13292395  0.09756639  0.96634683    -0.00500
C590        C  0.12985831  0.07524999  0.98719655    -0.03100
C591        C  0.12054729  0.95222457  0.96893911     0.36200
C592        C  0.13908293  0.14641191  0.96641783     0.39800
C593        C  0.12525105  0.99637497  0.92664485     0.38900
C594        C  0.13094823  0.10170613  0.00791425     0.35900
C595        C  0.17738531  0.01828093  0.01170342     0.36500
C596        C  0.08128021  0.94015164  0.05060326     0.39800
N597        N  0.12393249  0.97416563  0.91050137    -0.38300
N598        N  0.11714111  0.91285796  0.96976119    -0.39900
N599        N  0.14405017  0.18533013  0.96686107    -0.37600
N600        N  0.13189764  0.12277132  0.02442888    -0.40000
N601        N  0.05662642  0.99654609  0.00096981    -0.39800
N602        N  0.06192541  0.92478008  0.05879489    -0.37400
N603        N  0.20261343  0.96066892  0.05980886    -0.38500
N604        N  0.19674625  0.03473810  0.00404627    -0.40100
C605        C  0.19689162  0.62672347  0.09561937    -0.05100
C606        C  0.21221629  0.61264268  0.11441806     0.09100
C607        C  0.21313864  0.64122556  0.13362569    -0.02400
C608        C  0.20080759  0.68528588  0.13335240    -0.00700
C609        C  0.18723694  0.70117975  0.11382259    -0.04300
C610        C  0.18427562  0.67054526  0.09531706     0.02700
C611        C  0.22960527  0.56996180  0.11325879     0.09500
C612        C  0.22792120  0.62606053  0.15337285     0.35400
C613        C  0.17001777  0.68490614  0.07515555     0.38900
C614        C  0.25454963  0.57076825  0.10132412    -0.04700
C615        C  0.27259233  0.53276179  0.10215014     0.02500
C616        C  0.26512254  0.49235493  0.11380679    -0.04300
C617        C  0.23948209  0.49080014  0.12482341    -0.00500
C618        C  0.22199227  0.52966538  0.12479551    -0.03100
C619        C  0.26148359  0.61068636  0.08790479     0.36200
C620        C  0.23151269  0.44981414  0.13698894     0.39800
C621        C  0.29883701  0.53570012  0.09095707     0.38900
C622        C  0.19613115  0.52832798  0.13666727     0.35900
C623        C  0.19544971  0.59701233  0.07600957     0.36500
C624        C  0.20287074  0.71460519  0.15306694     0.39800
N625        N  0.31977972  0.53915861  0.08211031    -0.38300
N626        N  0.26665600  0.64218832  0.07686971    -0.39900
N627        N  0.22519094  0.41705644  0.14666278    -0.37600
N628        N  0.17552367  0.52735697  0.14618977    -0.40000
N629        N  0.23961784  0.61383180  0.16914637    -0.39800
N630        N  0.20484191  0.73786393  0.16880080    -0.37400
N631        N  0.15861801  0.69627748  0.05908013    -0.38500
N632        N  0.19452353  0.57359824  0.06026344    -0.40100
C633        C  0.28258344  0.13930623  0.13280788    -0.05100
C634        C  0.27724001  0.11575344  0.11250874     0.09100
C635        C  0.28754493  0.13339354  0.09218872    -0.02400
C636        C  0.30121895  0.17612301  0.09188047    -0.00700
C637        C  0.30484079  0.20164071  0.11207439    -0.04300
C638        C  0.29665249  0.18168117  0.13262200     0.02700
C639        C  0.25965573  0.07350386  0.11249108     0.09500
C640        C  0.28327722  0.10809897  0.07142068     0.35400
C641        C  0.30329850  0.20411900  0.15369534     0.38900
C642        C  0.23211184  0.07649468  0.10563571    -0.04700
C643        C  0.21504800  0.03746458  0.10654001     0.02500
C644        C  0.22534297  0.99494040  0.11453895    -0.04300
C645        C  0.25302736  0.99204841  0.12130802    -0.00500
C646        C  0.27016880  0.03093410  0.11994167    -0.03100
C647        C  0.22126052  0.11994082  0.09755869     0.36200
C648        C  0.26370380  0.94953551  0.13063647     0.39800
C649        C  0.18712003  0.04112423  0.09863925     0.38900
C650        C  0.29873642  0.02716043  0.12605001     0.35900
C651        C  0.27279762  0.12050463  0.15383557     0.36500
C652        C  0.31020966  0.19449548  0.07050209     0.39800
N653        N  0.16488938  0.04453758  0.09222430    -0.38300
N654        N  0.21250551  0.15437671  0.09099243    -0.39900
N655        N  0.27208792  0.91569211  0.13818810    -0.37600
N656        N  0.32157897  0.02409743  0.13083997    -0.40000
N657        N  0.27983559  0.08802496  0.05485680    -0.39800
N658        N  0.31745064  0.20885469  0.05339395    -0.37400
N659        N  0.30895161  0.22134935  0.17058681    -0.38500
N660        N  0.26494411  0.10523789  0.17055875    -0.40100
C661        C  0.02556883  0.18807226  0.88595926    -0.05100
C662        C  0.01374906  0.16932875  0.86636686     0.09100
C663        C  0.03086262  0.15241157  0.84906782    -0.02400
C664        C  0.05955073  0.15180321  0.85189836    -0.00700
C665        C  0.07135331  0.16884152  0.87192297    -0.04300
C666        C  0.05421250  0.18817070  0.88868376     0.02700
C667        C  0.98329283  0.16345178  0.86517640     0.09500
C668        C  0.01885729  0.13486820  0.82853627     0.35400
C669        C  0.06585864  0.20563612  0.90941478     0.38900
C670        C  0.96609641  0.20059379  0.85932733    -0.04700
C671        C  0.93734467  0.19635322  0.86099479     0.02500
C672        C  0.92547371  0.15475790  0.86867042    -0.04300
C673        C  0.94298480  0.11710905  0.87385291    -0.00500
C674        C  0.97160469  0.12148125  0.87195731    -0.03100
C675        C  0.97816019  0.24346976  0.85195979     0.36200
C676        C  0.93191125  0.07445359  0.88255751     0.39800
C677        C  0.92013199  0.23495090  0.85471196     0.38900
C678        C  0.98925627  0.08310360  0.87784237     0.35900
C679        C  0.00806494  0.20541383  0.90379376     0.36500
C680        C  0.07696325  0.13365048  0.83419892     0.39800
N681        N  0.90651257  0.26591491  0.84972052    -0.38300
N682        N  0.98790809  0.27762313  0.84611192    -0.39900
N683        N  0.92313043  0.04045414  0.88955005    -0.37600
N684        N  0.00337473  0.05256830  0.88250970    -0.40000
N685        N  0.00930013  0.12098140  0.81210282    -0.39800
N686        N  0.09092812  0.11921858  0.82011275    -0.37400
N687        N  0.07513409  0.21955546  0.92595511    -0.38500
N688        N  0.99399432  0.21908789  0.91798038    -0.40100
C689        C  0.76944008  0.20421781  0.98398212    -0.05100
C690        C  0.75148218  0.24200841  0.98173463     0.09100
C691        C  0.74568191  0.25976894  0.96023297    -0.02400
C692        C  0.75746267  0.23944956  0.94103582    -0.00700
C693        C  0.77624079  0.20260987  0.94327085    -0.04300
C694        C  0.78266201  0.18576749  0.96491292     0.02700
C695        C  0.73790075  0.26245815  0.00192657     0.09500
C696        C  0.72784290  0.29951701  0.95789111     0.35400
C697        C  0.80329322  0.15028889  0.96774937     0.38900
C698        C  0.75279074  0.28953263  0.01730578    -0.04700
C699        C  0.73971614  0.30871469  0.03634508     0.02500
C700        C  0.71137662  0.30168843  0.03991023    -0.04300
C701        C  0.69623807  0.27723821  0.02325132    -0.00500
C702        C  0.70974385  0.25596096  0.00510877    -0.03100
C703        C  0.78166873  0.29745021  0.01351462     0.36200
C704        C  0.66666777  0.27365407  0.02418438     0.39800
C705        C  0.75537714  0.33730777  0.05160427     0.38900
C706        C  0.69471784  0.22623649  0.98984283     0.35900
C707        C  0.77398277  0.18401635  0.00591732     0.36500
C708        C  0.75140565  0.25841973  0.91906995     0.39800
N709        N  0.76792783  0.36022905  0.06368710    -0.38300
N710        N  0.80472684  0.30349264  0.01048982    -0.39900
N711        N  0.64308832  0.27096058  0.02459557    -0.37600
N712        N  0.68286783  0.20235359  0.97772588    -0.40000
N713        N  0.71359083  0.33114636  0.95598307    -0.39800
N714        N  0.74659773  0.27338217  0.90153391    -0.37400
N715        N  0.82012660  0.12272742  0.97027741    -0.38500
N716        N  0.77738147  0.16784206  0.02342333    -0.40100
C717        C  0.78335787  0.36505518  0.84973495    -0.05100
C718        C  0.77951184  0.39232036  0.86918735     0.09100
C719        C  0.79163972  0.37829227  0.88953140    -0.02400
C720        C  0.80556971  0.33563193  0.89092102    -0.00700
C721        C  0.80748950  0.30627980  0.87186471    -0.04300
C722        C  0.79741313  0.32239947  0.85102174     0.02700
C723        C  0.76090518  0.43384403  0.86894488     0.09500
C724        C  0.78842273  0.40683970  0.90941708     0.35400
C725        C  0.80119709  0.29469107  0.83092095     0.38900
C726        C  0.73251859  0.42822850  0.87183378    -0.04700
C727        C  0.71507681  0.46699109  0.87412367     0.02500
C728        C  0.72574916  0.51242545  0.87286388    -0.04300
C729        C  0.75422276  0.51765695  0.86895865    -0.00500
C730        C  0.77163373  0.47868299  0.86732946    -0.03100
C731        C  0.72121822  0.38211138  0.87248861     0.36200
C732        C  0.76572437  0.56307603  0.86556553     0.39800
C733        C  0.68629156  0.45948384  0.87849021     0.38900
C734        C  0.80069945  0.48460271  0.86382699     0.35900
C735        C  0.77196196  0.38019135  0.82855567     0.36500
C736        C  0.81586859  0.32062255  0.91253290     0.39800
N737        N  0.66335414  0.45310992  0.88204637    -0.38300
N738        N  0.71222667  0.34536222  0.87276039    -0.39900
N739        N  0.77480034  0.59926286  0.86265158    -0.37600
N740        N  0.82392364  0.48935946  0.86103936    -0.40000
N741        N  0.78577279  0.42975584  0.92521929    -0.39800
N742        N  0.82398368  0.30877820  0.92982042    -0.37400
N743        N  0.80433351  0.27252485  0.81491714    -0.38500
N744        N  0.76282681  0.39220710  0.81164444    -0.40100
C745        C  0.71847610  0.98114729  0.86613896    -0.05100
C746        C  0.72925726  0.93623707  0.86769274     0.09100
C747        C  0.75777271  0.93021031  0.86969525    -0.02400
C748        C  0.77528193  0.96873003  0.87086008    -0.00700
C749        C  0.76464709  0.01428562  0.86973851    -0.04300
C750        C  0.73591038  0.01999583  0.86698700     0.02700
C751        C  0.71094017  0.89467362  0.86851015     0.09500
C752        C  0.76901832  0.88404377  0.87082792     0.35400
C753        C  0.72418355  0.06544203  0.86425798     0.38900
C754        C  0.70816878  0.86565693  0.84959093    -0.04700
C755        C  0.69634423  0.82147669  0.85176416     0.02500
C756        C  0.68660650  0.80621852  0.87288795    -0.04300
C757        C  0.68684995  0.83756891  0.89127711    -0.00500
C758        C  0.69905009  0.88138166  0.88905702    -0.03100
C759        C  0.71798565  0.88116376  0.82793926     0.36200
C760        C  0.67638626  0.82398161  0.91307371     0.39800
C761        C  0.69454142  0.79153455  0.83227489     0.38900
C762        C  0.70044639  0.91224995  0.90822720     0.35900
C763        C  0.68919687  0.98737144  0.86351208     0.36500
C764        C  0.80436346  0.96061815  0.87403917     0.39800
N765        N  0.69315085  0.76751242  0.81675807    -0.38300
N766        N  0.72562683  0.89379583  0.81064836    -0.39900
N767        N  0.66805023  0.81336943  0.93048271    -0.37600
N768        N  0.70149101  0.93710305  0.92344717    -0.40000
N769        N  0.77794444  0.84701317  0.87158935    -0.39800
N770        N  0.82738850  0.95391532  0.87660254    -0.37400
N771        N  0.71470529  0.10184293  0.86199203    -0.38500
N772        N  0.66593270  0.99226369  0.86143155    -0.40100
C773        C  0.02441668  0.81895942  0.10380106    -0.05100
C774        C  0.01051827  0.83871138  0.12222229     0.09100
C775        C  0.02564174  0.85854253  0.13992018    -0.02400
C776        C  0.05446723  0.86107076  0.13860364    -0.00700
C777        C  0.06842314  0.84357151  0.11954035    -0.04300
C778        C  0.05316290  0.82115922  0.10243766     0.02700
C779        C  0.97994393  0.84303207  0.12164817     0.09500
C780        C  0.01135133  0.87701427  0.15931099     0.35400
C781        C  0.06671699  0.80222310  0.08273252     0.38900
C782        C  0.96300838  0.80824078  0.13041136    -0.04700
C783        C  0.93421530  0.81164562  0.12843256     0.02500
C784        C  0.92212412  0.85000675  0.11761811    -0.04300
C785        C  0.93936863  0.88581829  0.10973368    -0.00500
C786        C  0.96800656  0.88194217  0.11152834    -0.03100
C787        C  0.97535864  0.76904495  0.14150604     0.36200
C788        C  0.92795333  0.92681931  0.09941817     0.39800
C789        C  0.91709032  0.77676431  0.13851104     0.38900
C790        C  0.98541569  0.91787928  0.10258822     0.35900
C791        C  0.00893049  0.79771198  0.08579586     0.36500
C792        C  0.06973471  0.88106406  0.15703650     0.39800
N793        N  0.90347461  0.74909967  0.14677199    -0.38300
N794        N  0.98537651  0.73792074  0.15040226    -0.39900
N795        N  0.91898032  0.95986109  0.09144479    -0.37600
N796        N  0.99935670  0.94636838  0.09543340    -0.40000
N797        N  0.99980538  0.89152524  0.17478031    -0.39800
N798        N  0.08193110  0.89685989  0.17178699    -0.37400
N799        N  0.07751229  0.78693710  0.06706649    -0.38500
N800        N  0.99657837  0.78079296  0.07143713    -0.40100
C801        C  0.87853635  0.04173799  0.97568898    -0.05100
C802        C  0.85791883  0.00975481  0.98116998     0.09100
C803        C  0.83763967  0.99934533  0.96511189    -0.02400
C804        C  0.83668456  0.02347362  0.94462335    -0.00700
C805        C  0.85789830  0.05430308  0.93873404    -0.04300
C806        C  0.87934576  0.06193950  0.95418171     0.02700
C807        C  0.85719348  0.98792766  0.00402069     0.09500
C808        C  0.81737042  0.96430040  0.96980690     0.35400
C809        C  0.90252140  0.09006433  0.94791190     0.38900
C810        C  0.83542292  0.99753443  0.01895571    -0.04700
C811        C  0.83418625  0.97574454  0.04005793     0.02500
C812        C  0.85571760  0.94648416  0.04722357    -0.04300
C813        C  0.87797773  0.93816568  0.03249734    -0.00500
C814        C  0.87825395  0.95763483  0.01080735    -0.03100
C815        C  0.81395821  0.02953076  0.01254913     0.36200
C816        C  0.90095193  0.91015673  0.03965427     0.39800
C817        C  0.80967443  0.98122677  0.05356248     0.38900
C818        C  0.90011103  0.94594152  0.99528805     0.35900
C819        C  0.89849267  0.05499018  0.99246010     0.36500
C820        C  0.81239812  0.01960807  0.93084647     0.39800
N821        N  0.78981715  0.98538445  0.06394316    -0.38300
N822        N  0.79663580  0.05468554  0.00753448    -0.39900
N823        N  0.91937747  0.88797624  0.04530104    -0.37600
N824        N  0.91756578  0.93685872  0.98289507    -0.40000
N825        N  0.80117248  0.93640247  0.97347262    -0.39800
N826        N  0.79252001  0.01687915  0.92046917    -0.37400
N827        N  0.92115168  0.11209483  0.94281758    -0.38500
N828        N  0.91430454  0.06553179  0.00593309    -0.40100
C829        C  0.77281836  0.74714286  0.01397064    -0.05100
C830        C  0.74700705  0.76387514  0.00754885     0.09100
C831        C  0.73356772  0.79712187  0.02104793    -0.02400
C832        C  0.74677486  0.81577978  0.04014325    -0.00700
C833        C  0.77313701  0.80008881  0.04619581    -0.04300
C834        C  0.78564943  0.76446971  0.03331556     0.02700
C835        C  0.73430452  0.74543185  0.98653592     0.09500
C836        C  0.70601761  0.81146320  0.01548212     0.35400
C837        C  0.81133365  0.74388214  0.04032300     0.38900
C838        C  0.71532175  0.70922212  0.98774053    -0.04700
C839        C  0.70586293  0.68798943  0.96791897     0.02500
C840        C  0.71462995  0.70370962  0.94662327    -0.04300
C841        C  0.73352047  0.74036756  0.94546968    -0.00500
C842        C  0.74366740  0.76051839  0.96536958    -0.03100
C843        C  0.70565508  0.69374922  0.00946022     0.36200
C844        C  0.74144299  0.75920709  0.92390277     0.39800
C845        C  0.68715529  0.64960278  0.96940690     0.38900
C846        C  0.76395339  0.79668870  0.96413666     0.35900
C847        C  0.78599076  0.71126304  0.00070665     0.36500
C848        C  0.73353962  0.85187608  0.05312681     0.39800
N849        N  0.67214619  0.61904403  0.97024999    -0.38300
N850        N  0.69788604  0.68187278  0.02684816    -0.39900
N851        N  0.74765081  0.77447977  0.90672799    -0.37600
N852        N  0.78033891  0.82521421  0.96320594    -0.40000
N853        N  0.68385799  0.82239739  0.01126996    -0.39800
N854        N  0.72304985  0.88075487  0.06349549    -0.37400
N855        N  0.83175396  0.72717683  0.04580128    -0.38500
N856        N  0.79630746  0.68272984  0.99000626    -0.40100
C857        C  0.70184343  0.13817929  0.13911533    -0.05100
C858        C  0.70789794  0.11085293  0.12009198     0.09100
C859        C  0.69821903  0.12449945  0.09886134    -0.02400
C860        C  0.68529064  0.16760176  0.09620882    -0.00700
C861        C  0.68189294  0.19750533  0.11487867    -0.04300
C862        C  0.68837784  0.18101727  0.13654392     0.02700
C863        C  0.72677389  0.07019241  0.12159887     0.09500
C864        C  0.70297282  0.09499260  0.07949422     0.35400
C865        C  0.68045583  0.20761214  0.15615671     0.38900
C866        C  0.71663500  0.02581279  0.12596342    -0.04700
C867        C  0.73402869  0.98689629  0.12420509     0.02500
C868        C  0.76196308  0.99211732  0.11824193    -0.04300
C869        C  0.77214555  0.03729000  0.11463769    -0.00500
C870        C  0.75461093  0.07584546  0.11630783    -0.03100
C871        C  0.68821952  0.02041971  0.13225364     0.36200
C872        C  0.80044485  0.04460787  0.10836917     0.39800
C873        C  0.72305196  0.94169318  0.12906157     0.38900
C874        C  0.76510266  0.12175963  0.11217168     0.35900
C875        C  0.71037364  0.12299667  0.16116904     0.36500
C876        C  0.67691389  0.18162334  0.07394538     0.39800
N877        N  0.71418588  0.90571254  0.13289296    -0.38300
N878        N  0.66555871  0.01634413  0.13742437    -0.39900
N879        N  0.82298800  0.05073900  0.10333351    -0.37600
N880        N  0.77332572  0.15840178  0.10888661    -0.40000
N881        N  0.70687535  0.07134027  0.06412408    -0.39800
N882        N  0.67014648  0.19175102  0.05604204    -0.37400
N883        N  0.67353367  0.22836434  0.17180594    -0.38500
N884        N  0.71718024  0.11091718  0.17879113    -0.40100
C885        C  0.75662042  0.65453177  0.11291371    -0.05100
C886        C  0.77314677  0.61475150  0.11246788     0.09100
C887        C  0.80187005  0.61941144  0.11234777    -0.02400
C888        C  0.81402252  0.66370337  0.11286605    -0.00700
C889        C  0.79745473  0.70375232  0.11341177    -0.04300
C890        C  0.76855432  0.69860294  0.11325929     0.02700
C891        C  0.75978182  0.56818600  0.11249241     0.09500
C892        C  0.81886402  0.57844548  0.11172800     0.35400
C893        C  0.75061811  0.73858709  0.11257772     0.38900
C894        C  0.75486976  0.54458461  0.09209907    -0.04700
C895        C  0.73973759  0.50314916  0.09195215     0.02500
C896        C  0.72861748  0.48580487  0.11211379    -0.04300
C897        C  0.73388911  0.50916383  0.13256230    -0.00500
C898        C  0.74941434  0.55004697  0.13272630    -0.03100
C899        C  0.76398056  0.56452814  0.07113483     0.36200
C900        C  0.72337498  0.49108760  0.15353356     0.39800
C901        C  0.73436723  0.47969472  0.07087614     0.38900
C902        C  0.75376355  0.57471142  0.15365329     0.35900
C903        C  0.72709490  0.64997492  0.11276664     0.36500
C904        C  0.84347008  0.66792201  0.11350730     0.39800
N905        N  0.73001594  0.46088819  0.05410537    -0.38300
N906        N  0.77102165  0.58079883  0.05439820    -0.39900
N907        N  0.71503768  0.47675236  0.17029750    -0.37600
N908        N  0.75706489  0.59465909  0.17027642    -0.40000
N909        N  0.83232802  0.54563833  0.11115689    -0.39800
N910        N  0.86701696  0.67121957  0.11411095    -0.37400
N911        N  0.73609967  0.77009811  0.11209638    -0.38500
N912        N  0.70356011  0.64626841  0.11269051    -0.40100
C913        C  0.68964860  0.66059255  0.72026024    -0.05100
C914        C  0.67973698  0.62342079  0.73298520     0.09100
C915        C  0.67008555  0.58355844  0.72205321    -0.02400
C916        C  0.67047847  0.58072647  0.69842959    -0.00700
C917        C  0.67936313  0.61869431  0.68553705    -0.04300
C918        C  0.68922295  0.65852010  0.69660927     0.02700
C919        C  0.67933520  0.62627594  0.75801040     0.09500
C920        C  0.65940707  0.54570462  0.73519904     0.35400
C921        C  0.69827185  0.69803652  0.68382507     0.38900
C922        C  0.65823116  0.65065361  0.76905059    -0.04700
C923        C  0.65736529  0.65230853  0.79267574     0.02500
C924        C  0.67752959  0.62928435  0.80539485    -0.04300
C925        C  0.69886301  0.60530963  0.79428870    -0.00500
C926        C  0.69979097  0.60400331  0.77064433    -0.03100
C927        C  0.63726866  0.67369896  0.75603378     0.36200
C928        C  0.71921137  0.58018851  0.80706501     0.39800
C929        C  0.63601923  0.67853827  0.80390185     0.38900
C930        C  0.72161264  0.57927850  0.75923606     0.35900
C931        C  0.70008605  0.70115657  0.73160720     0.36500
C932        C  0.66292271  0.53789553  0.68749129     0.39800
N933        N  0.61908398  0.69952007  0.81292785    -0.38300
N934        N  0.62059030  0.69214243  0.74562001    -0.39900
N935        N  0.73550283  0.55986466  0.81705008    -0.37600
N936        N  0.73896830  0.55949475  0.75011026    -0.40000
N937        N  0.65078369  0.51572466  0.74576380    -0.39800
N938        N  0.65718782  0.50354622  0.67881443    -0.37400
N939        N  0.70558051  0.72981768  0.67386080    -0.38500
N940        N  0.70837610  0.73346311  0.74071757    -0.40100
C941        C  0.66279493  0.33515193  0.26715552    -0.05100
C942        C  0.68259330  0.36121142  0.25568764     0.09100
C943        C  0.70209877  0.38659840  0.26788825    -0.02400
C944        C  0.70152723  0.38658804  0.29154162    -0.00700
C945        C  0.68123722  0.36143513  0.30305984    -0.04300
C946        C  0.66197747  0.33555553  0.29079736     0.02700
C947        C  0.68169494  0.36464894  0.23071517     0.09500
C948        C  0.72223914  0.41376893  0.25600511     0.35400
C949        C  0.64136036  0.30922773  0.30251720     0.38900
C950        C  0.66486455  0.39802058  0.22065289    -0.04700
C951        C  0.66391418  0.40204373  0.19710464     0.02500
C952        C  0.67980712  0.37216797  0.18321670    -0.04300
C953        C  0.69740962  0.33953152  0.19366194    -0.00500
C954        C  0.69798371  0.33554840  0.21727101    -0.03100
C955        C  0.64852112  0.42846564  0.23472660     0.36200
C956        C  0.71503124  0.30959807  0.18044294     0.39800
C957        C  0.64716820  0.43834186  0.18752034     0.38900
C958        C  0.71517097  0.30110699  0.22786241     0.35900
C959        C  0.64307253  0.30841492  0.25455377     0.36500
C960        C  0.72096246  0.41438178  0.30394007     0.39800
N961        N  0.63374449  0.46733964  0.18002263    -0.38300
N962        N  0.63553833  0.45259436  0.24602929    -0.39900
N963        N  0.72932025  0.28583265  0.17004891    -0.37600
N964        N  0.72879227  0.27357256  0.23634427    -0.40000
N965        N  0.73821736  0.43546485  0.24644585    -0.39800
N966        N  0.73645354  0.43679010  0.31370104    -0.37400
N967        N  0.62484885  0.28837501  0.31188396    -0.38500
N968        N  0.62736269  0.28703710  0.24448662    -0.40100
C969        C  0.65610150  0.49908252  0.46637657    -0.05100
C970        C  0.63481581  0.48888540  0.48153020     0.09100
C971        C  0.61478210  0.45649126  0.47544698    -0.02400
C972        C  0.61609771  0.43391993  0.45442677    -0.00700
C973        C  0.63804954  0.44260967  0.43946288    -0.04300
C974        C  0.65808919  0.47539733  0.44569023     0.02700
C975        C  0.63456812  0.51021446  0.50449822     0.09500
C976        C  0.59327329  0.44522477  0.49126030     0.35400
C977        C  0.68247425  0.48144585  0.43215666     0.38900
C978        C  0.61624862  0.54620527  0.50980166    -0.04700
C979        C  0.61656002  0.56682527  0.53135026     0.02500
C980        C  0.63617870  0.55293209  0.54759364    -0.04300
C981        C  0.65481558  0.51708816  0.54184815    -0.00500
C982        C  0.65314978  0.49472209  0.52085961    -0.03100
C983        C  0.59714978  0.56220886  0.49291355     0.36200
C984        C  0.67730544  0.50500325  0.55655793     0.39800
C985        C  0.59653763  0.60226483  0.53654604     0.38900
C986        C  0.67061418  0.45534969  0.51615609     0.35900
C987        C  0.67655822  0.53292187  0.47247132     0.36500
C988        C  0.59495740  0.40126564  0.44848561     0.39800
N989        N  0.58053767  0.63059658  0.54057633    -0.38300
N990        N  0.58193215  0.57483194  0.47940775    -0.39900
N991        N  0.69569053  0.49527369  0.56776450    -0.37600
N992        N  0.68446178  0.42366267  0.51283321    -0.40000
N993        N  0.57622507  0.43630398  0.50395998    -0.39800
N994        N  0.57809692  0.37504690  0.44387024    -0.37400
N995        N  0.70239834  0.48581924  0.42196216    -0.38500
N996        N  0.69292544  0.55984533  0.47731631    -0.40100
C997        C  0.30048421  0.59408711  0.72047501    -0.05100
C998        C  0.32042188  0.61902038  0.73250644     0.09100
C999        C  0.34053315  0.64391573  0.72068962    -0.02400
C1000       C  0.34040224  0.64455190  0.69701953    -0.00700
C1001       C  0.32068845  0.61904912  0.68498419    -0.04300
C1002       C  0.30080001  0.59364730  0.69679916     0.02700
C1003       C  0.31970021  0.62031680  0.75765419     0.09500
C1004       C  0.36138181  0.66892229  0.73292295     0.35400
C1005       C  0.28113477  0.56589937  0.68462651     0.38900
C1006       C  0.32769615  0.58145794  0.77023120    -0.04700
C1007       C  0.32669607  0.58274024  0.79391481     0.02500
C1008       C  0.31850619  0.62346870  0.80526646    -0.04300
C1009       C  0.31031813  0.66227377  0.79255675    -0.00500
C1010       C  0.31061946  0.66042165  0.76888786    -0.03100
C1011       C  0.33679984  0.53999359  0.75873952     0.36200
C1012       C  0.30209570  0.70470402  0.80364942     0.39800
C1013       C  0.33284589  0.54134062  0.80652475     0.38900
C1014       C  0.30131050  0.69975106  0.75598167     0.35900
C1015       C  0.27955529  0.56897754  0.73250250     0.36500
C1016       C  0.35986081  0.67302173  0.68506170     0.39800
N1017       N  0.33751961  0.50824676  0.81659867    -0.38300
N1018       N  0.34392440  0.50688043  0.74953279    -0.39900
N1019       N  0.29543621  0.73880922  0.81219965    -0.37600
N1020       N  0.29389667  0.73101235  0.74562201    -0.40000
N1021       N  0.37801613  0.68891501  0.74265641    -0.39800
N1022       N  0.37519037  0.69596858  0.67547410    -0.37400
N1023       N  0.26552177  0.54363276  0.67492086    -0.38500
N1024       N  0.26292697  0.54882304  0.74211917    -0.40100
C1025       C  0.53043505  0.69238444  0.63022364    -0.05100
C1026       C  0.51338558  0.65994323  0.61961802     0.09100
C1027       C  0.52506319  0.62219826  0.60810436    -0.02400
C1028       C  0.55367972  0.61702905  0.60700806    -0.00700
C1029       C  0.57099141  0.64939279  0.61776055    -0.04300
C1030       C  0.55912489  0.68693099  0.62951062     0.02700
C1031       C  0.48296373  0.66507112  0.62049303     0.09500
C1032       C  0.50749101  0.58891397  0.59709114     0.35400
C1033       C  0.57630502  0.71906976  0.64158005     0.38900
C1034       C  0.46918076  0.69023978  0.60376224    -0.04700
C1035       C  0.44036355  0.69041891  0.60296118     0.02500
C1036       C  0.42510481  0.66473696  0.61879229    -0.04300
C1037       C  0.43905031  0.64212030  0.63643618    -0.00500
C1038       C  0.46785839  0.64214767  0.63718795    -0.03100
C1039       C  0.48478614  0.71434544  0.58678359     0.36200
C1040       C  0.42382420  0.61882697  0.65391129     0.39800
C1041       C  0.42666963  0.71502293  0.58502644     0.38900
C1042       C  0.48211612  0.61730176  0.65472904     0.35900
C1043       C  0.51832724  0.73151520  0.64175755     0.36500
C1044       C  0.56510941  0.57914371  0.59401313     0.39800
N1045       N  0.41576830  0.73473106  0.57073526    -0.38300
N1046       N  0.49727032  0.73346566  0.57322624    -0.39900
N1047       N  0.41179909  0.60029579  0.66793974    -0.37600
N1048       N  0.49360720  0.59744673  0.66865062    -0.40000
N1049       N  0.49346001  0.56240536  0.58832805    -0.39800
N1050       N  0.57402027  0.54881186  0.58363466    -0.37400
N1051       N  0.58992709  0.74455341  0.65142380    -0.38500
N1052       N  0.50855061  0.76280579  0.65084235    -0.40100
C1053       C  0.33356845  0.39962939  0.22353608    -0.05100
C1054       C  0.31729407  0.36658590  0.23434235     0.09100
C1055       C  0.29984330  0.33859013  0.22143860    -0.02400
C1056       C  0.29852142  0.34359266  0.19780772    -0.00700
C1057       C  0.31570338  0.37557958  0.18655504    -0.04300
C1058       C  0.33279917  0.40437783  0.19993112     0.02700
C1059       C  0.31769322  0.36300133  0.25952949     0.09500
C1060       C  0.28343302  0.30407064  0.23260857     0.35400
C1061       C  0.34898466  0.44059598  0.18982357     0.38900
C1062       C  0.29903136  0.38899075  0.27254621    -0.04700
C1063       C  0.30032634  0.38801286  0.29624510     0.02500
C1064       C  0.32031966  0.36088750  0.30717615    -0.04300
C1065       C  0.33879660  0.33443928  0.29411557    -0.00500
C1066       C  0.33745396  0.33546942  0.27039810    -0.03100
C1067       C  0.27889376  0.41768556  0.26143789     0.36200
C1068       C  0.35898630  0.30566758  0.30511224     0.39800
C1069       C  0.28193787  0.41686623  0.30931643     0.38900
C1070       C  0.35656870  0.30854306  0.25709792     0.35900
C1071       C  0.35115532  0.42906631  0.23689650     0.36500
C1072       C  0.27903236  0.31592913  0.18544104     0.39800
N1073       N  0.26731301  0.44015594  0.31963798    -0.38300
N1074       N  0.26289140  0.44055817  0.25248679    -0.39900
N1075       N  0.37503739  0.28270155  0.31395237    -0.37600
N1076       N  0.37181530  0.28707989  0.24645030    -0.40000
N1077       N  0.27052593  0.27635750  0.24157211    -0.39800
N1078       N  0.26310616  0.29423213  0.17576329    -0.37400
N1079       N  0.36197095  0.46953169  0.18190520    -0.38500
N1080       N  0.36516799  0.45245673  0.24758639    -0.40100
C1081       C  0.53404216  0.29162404  0.35988042    -0.05100
C1082       C  0.51648920  0.32630156  0.36822488     0.09100
C1083       C  0.52752550  0.36626630  0.37808499    -0.02400
C1084       C  0.55601220  0.37184801  0.37948936    -0.00700
C1085       C  0.57383341  0.33663881  0.37163111    -0.04300
C1086       C  0.56265132  0.29650586  0.36175790     0.02700
C1087       C  0.48622146  0.31996376  0.36832637     0.09500
C1088       C  0.50938799  0.40073839  0.38777842     0.35400
C1089       C  0.58046135  0.26017193  0.35350271     0.38900
C1090       C  0.47361676  0.30015778  0.38721692    -0.04700
C1091       C  0.44498437  0.30180970  0.38961036     0.02500
C1092       C  0.42867966  0.32342119  0.37299519    -0.04300
C1093       C  0.44136128  0.34044221  0.35332841    -0.00500
C1094       C  0.47005843  0.33896865  0.35110685    -0.03100
C1095       C  0.49040351  0.28072622  0.40490517     0.36200
C1096       C  0.42499295  0.36013428  0.33546643     0.39800
C1097       C  0.43275239  0.28432607  0.41007065     0.38900
C1098       C  0.48312068  0.35901222  0.33160710     0.35900
C1099       C  0.52256068  0.25043029  0.34990541     0.36500
C1100       C  0.56674610  0.41310301  0.39008039     0.39800
N1101       N  0.42311387  0.27045481  0.42644466    -0.38300
N1102       N  0.50393326  0.26553321  0.41898844    -0.39900
N1103       N  0.41201986  0.37596473  0.32119541    -0.37600
N1104       N  0.49354891  0.37518994  0.31609598    -0.40000
N1105       N  0.49483209  0.42780571  0.39569870    -0.39800
N1106       N  0.57516180  0.44614570  0.39845732    -0.37400
N1107       N  0.59456717  0.23090650  0.34702906    -0.38500
N1108       N  0.51339084  0.21750647  0.34198453    -0.40100
C1109       C  0.39500582  0.54852390  0.51250255    -0.05100
C1110       C  0.37757870  0.51233573  0.50589553     0.09100
C1111       C  0.35704618  0.49740661  0.52079515    -0.02400
C1112       C  0.35188072  0.52162746  0.54090268    -0.00700
C1113       C  0.36892746  0.55863593  0.54758194    -0.04300
C1114       C  0.39111171  0.57092643  0.53346284     0.02700
C1115       C  0.37805437  0.49318101  0.48238884     0.09500
C1116       C  0.34035779  0.45793411  0.51487317     0.35400
C1117       C  0.41006309  0.60647802  0.54035333     0.38900
C1118       C  0.39860169  0.46212722  0.47522124    -0.04700
C1119       C  0.39631733  0.43942461  0.45421183     0.02500
C1120       C  0.37268531  0.44559928  0.44079247    -0.04300
C1121       C  0.35237471  0.47727319  0.44799093    -0.00500
C1122       C  0.35568192  0.50229326  0.46811020    -0.03100
C1123       C  0.42144839  0.45200368  0.48987458     0.36200
C1124       C  0.32659168  0.48079084  0.43614078     0.39800
C1125       C  0.41826055  0.40952248  0.44652630     0.38900
C1126       C  0.33508778  0.53580293  0.47484967     0.35900
C1127       C  0.41660056  0.56333757  0.49752530     0.36500
C1128       C  0.32729912  0.51079001  0.55341636     0.39800
N1129       N  0.43586909  0.38591252  0.44037812    -0.38300
N1130       N  0.43966793  0.44387466  0.50158972    -0.39900
N1131       N  0.30568620  0.48317956  0.42718234    -0.37600
N1132       N  0.31866423  0.56231357  0.48036605    -0.40000
N1133       N  0.32709026  0.42652581  0.51005981    -0.39800
N1134       N  0.30732859  0.50236603  0.56291522    -0.37400
N1135       N  0.42536869  0.63470644  0.54571205    -0.38500
N1136       N  0.43393599  0.57498770  0.48563688    -0.40100
C1137       C  0.19734580  0.11837745  0.72260671    -0.05100
C1138       C  0.17260307  0.12770253  0.73390023     0.09100
C1139       C  0.14929652  0.14099847  0.72168391    -0.02400
C1140       C  0.15071363  0.14498937  0.69817934    -0.00700
C1141       C  0.17491853  0.13250684  0.68659771    -0.04300
C1142       C  0.19860069  0.12086817  0.69901648     0.02700
C1143       C  0.17187703  0.12755930  0.75888747     0.09500
C1144       C  0.12385802  0.15051214  0.73337270     0.35400
C1145       C  0.22436062  0.11168467  0.68774034     0.38900
C1146       C  0.17544926  0.16922996  0.77069576    -0.04700
C1147       C  0.17655061  0.16926856  0.79429419     0.02500
C1148       C  0.17375178  0.12755696  0.80620113    -0.04300
C1149       C  0.16994198  0.08584144  0.79432406    -0.00500
C1150       C  0.16874830  0.08594597  0.77068817    -0.03100
C1151       C  0.17775656  0.21214657  0.75844172     0.36200
C1152       C  0.16851837  0.04258413  0.80636519     0.39800
C1153       C  0.18014682  0.21249148  0.80619177     0.38900
C1154       C  0.16410849  0.04341103  0.75846052     0.35900
C1155       C  0.22151917  0.10613950  0.73536820     0.36500
C1156       C  0.12807382  0.16575750  0.68616709     0.39800
N1157       N  0.18309671  0.24736128  0.81531837    -0.38300
N1158       N  0.17935592  0.24624739  0.74855443    -0.39900
N1159       N  0.16762881  0.00810363  0.81600460    -0.37600
N1160       N  0.16023696  0.00953125  0.74869872    -0.40000
N1161       N  0.10354461  0.15777170  0.74272246    -0.39800
N1162       N  0.11031555  0.18350623  0.67670866    -0.37400
N1163       N  0.24500971  0.10487041  0.67881364    -0.38500
N1164       N  0.24074126  0.09630243  0.74559374    -0.40100
C1165       C  0.30330889  0.87938274  0.62529408    -0.05100
C1166       C  0.27486834  0.88568129  0.62243044     0.09100
C1167       C  0.25821825  0.84692838  0.61875185    -0.02400
C1168       C  0.26975853  0.80241684  0.61770695    -0.00700
C1169       C  0.29845049  0.79591806  0.61963766    -0.04300
C1170       C  0.31515823  0.83481254  0.62335097     0.02700
C1171       C  0.26189305  0.93282072  0.62258183     0.09500
C1172       C  0.22900375  0.85307578  0.61564156     0.35400
C1173       C  0.34443092  0.82891122  0.62548246     0.38900
C1174       C  0.26225231  0.96012751  0.60300290    -0.04700
C1175       C  0.24586873  0.00031754  0.60158974     0.02500
C1176       C  0.22850999  0.01308447  0.61962509    -0.04300
C1177       C  0.22912644  0.98674337  0.63959442    -0.00500
C1178       C  0.24594026  0.94719437  0.64111460    -0.03100
C1179       C  0.27871447  0.94571357  0.58395300     0.36200
C1180       C  0.21252854  0.00033728  0.65873517     0.39800
C1181       C  0.24593390  0.02721293  0.58112310     0.38900
C1182       C  0.24642132  0.92051404  0.66164349     0.35900
C1183       C  0.32021171  0.91868316  0.63071089     0.36500
C1184       C  0.25181631  0.76353316  0.61374811     0.39800
N1185       N  0.24600761  0.04876610  0.56482142    -0.38300
N1186       N  0.29189678  0.93405277  0.56880206    -0.39900
N1187       N  0.19921244  0.01096057  0.67398719    -0.37600
N1188       N  0.24682904  0.89928092  0.67803799    -0.40000
N1189       N  0.20574601  0.85820533  0.61319582    -0.39800
N1190       N  0.23726277  0.73282526  0.61075843    -0.37400
N1191       N  0.36782262  0.82412140  0.62709399    -0.38500
N1192       N  0.33363962  0.95002677  0.63529363    -0.40100
C1193       C  0.20312161  0.37551980  0.59953814    -0.05100
C1194       C  0.21548109  0.38921229  0.61983597     0.09100
C1195       C  0.21117459  0.36302067  0.63939255    -0.02400
C1196       C  0.19706847  0.32071545  0.63814352    -0.00700
C1197       C  0.18700487  0.30445955  0.61726655    -0.04300
C1198       C  0.18879747  0.33352556  0.59820984     0.02700
C1199       C  0.23446172  0.42963742  0.62004708     0.09500
C1200       C  0.22182465  0.37925648  0.66068483     0.35400
C1201       C  0.17821034  0.31874273  0.57660852     0.38900
C1202       C  0.22417346  0.47466895  0.62256276    -0.04700
C1203       C  0.24182787  0.51288743  0.62095728     0.02500
C1204       C  0.27013729  0.50648613  0.61633691    -0.04300
C1205       C  0.28040416  0.46083920  0.61437203    -0.00500
C1206       C  0.26267152  0.42280828  0.61640942    -0.03100
C1207       C  0.19527284  0.48151553  0.62690946     0.36200
C1208       C  0.30906832  0.45241853  0.60958183     0.39800
C1209       C  0.23071496  0.55860236  0.62494706     0.38900
C1210       C  0.27349853  0.37634472  0.61471109     0.35900
C1211       C  0.20630383  0.40382580  0.57969342     0.36500
C1212       C  0.19338760  0.29350244  0.65829438     0.39800
N1213       N  0.22179948  0.59500374  0.62820840    -0.38300
N1214       N  0.17221420  0.48683579  0.63038592    -0.39900
N1215       N  0.33187658  0.44542640  0.60566562    -0.37600
N1216       N  0.28234794  0.33940167  0.61354585    -0.40000
N1217       N  0.23018779  0.39241551  0.67769214    -0.39800
N1218       N  0.19047056  0.27171632  0.67434544    -0.37400
N1219       N  0.16992466  0.30700043  0.55932858    -0.38500
N1220       N  0.20884403  0.42652673  0.56391177    -0.40100
C1221       C  0.24764989  0.25706953  0.52922172    -0.05100
C1222       C  0.24454892  0.23547725  0.50809081     0.09100
C1223       C  0.22966485  0.19404871  0.50644053    -0.02400
C1224       C  0.21617188  0.17636748  0.52549561    -0.00700
C1225       C  0.21951600  0.19778182  0.54665885    -0.04300
C1226       C  0.23596417  0.23746090  0.54851165     0.02700
C1227       C  0.25782725  0.25606480  0.48783725     0.09500
C1228       C  0.22891884  0.16908927  0.48531077     0.35400
C1229       C  0.24012844  0.25926326  0.57018652     0.38900
C1230       C  0.28646163  0.25573066  0.48609571    -0.04700
C1231       C  0.29951579  0.27916601  0.46848026     0.02500
C1232       C  0.28389211  0.29984765  0.45094632    -0.04300
C1233       C  0.25498922  0.30012157  0.45288011    -0.00500
C1234       C  0.24210920  0.27861402  0.47132328    -0.03100
C1235       C  0.30256083  0.23021229  0.50236903     0.36200
C1236       C  0.23834646  0.32412362  0.43650709     0.39800
C1237       C  0.32917331  0.28103876  0.46877919     0.38900
C1238       C  0.21258169  0.27961547  0.47335422     0.35900
C1239       C  0.26276169  0.29981810  0.53111333     0.36500
C1240       C  0.19872987  0.13637557  0.52336467     0.39800
N1241       N  0.35278947  0.28248594  0.46923302    -0.38300
N1242       N  0.31531174  0.20967623  0.51528493    -0.39900
N1243       N  0.22501775  0.34341390  0.42352212    -0.37600
N1244       N  0.18902472  0.28012641  0.47494918    -0.40000
N1245       N  0.22869425  0.14893246  0.46850643    -0.39800
N1246       N  0.18442781  0.10491744  0.52186070    -0.37400
N1247       N  0.24365647  0.27626965  0.58752895    -0.38500
N1248       N  0.27489690  0.33378202  0.53266342    -0.40100
C1249       C  0.19586752  0.89965372  0.22113650    -0.05100
C1250       C  0.18316314  0.86277115  0.23247062     0.09100
C1251       C  0.16937566  0.82864213  0.21986643    -0.02400
C1252       C  0.16732492  0.83248278  0.19629414    -0.00700
C1253       C  0.18005639  0.86929665  0.18505652    -0.04300
C1254       C  0.19466694  0.90248862  0.19750065     0.02700
C1255       C  0.18235069  0.86215064  0.25772176     0.09500
C1256       C  0.15678877  0.79008110  0.23124193     0.35400
C1257       C  0.20752190  0.94069568  0.18602469     0.38900
C1258       C  0.15759229  0.87135789  0.26903490    -0.04700
C1259       C  0.15652969  0.87191042  0.29272469     0.02500
C1260       C  0.18078446  0.86597814  0.30564242    -0.04300
C1261       C  0.20586202  0.85861797  0.29400114    -0.00500
C1262       C  0.20634762  0.85487777  0.27032499    -0.03100
C1263       C  0.13309892  0.88126380  0.25615729     0.36200
C1264       C  0.23165172  0.85763168  0.30599406     0.39800
C1265       C  0.13012454  0.87871516  0.30341359     0.38900
C1266       C  0.23174704  0.84393193  0.25885854     0.35900
C1267       C  0.20929589  0.93568896  0.23388544     0.36500
C1268       C  0.15161648  0.79911870  0.18360098     0.39800
N1269       N  0.10900159  0.88441587  0.31176152    -0.38300
N1270       N  0.11363824  0.88909408  0.24582712    -0.39900
N1271       N  0.25225522  0.85738975  0.31549991    -0.37600
N1272       N  0.25206047  0.83521478  0.24979914    -0.40000
N1273       N  0.14660833  0.75950826  0.24036586    -0.39800
N1274       N  0.13897438  0.77270727  0.17343597    -0.37400
N1275       N  0.21770151  0.97128100  0.17690970    -0.38500
N1276       N  0.22000541  0.96428940  0.24415243    -0.40100
C1277       C  0.21785726  0.78832925  0.48875432    -0.05100
C1278       C  0.24063886  0.75874205  0.48751240     0.09100
C1279       C  0.25360960  0.75060547  0.46673710    -0.02400
C1280       C  0.24291679  0.76995721  0.44693663    -0.00700
C1281       C  0.21904247  0.79775730  0.44786127    -0.04300
C1282       C  0.20708688  0.80787064  0.46908682     0.02700
C1283       C  0.25225817  0.73892303  0.50845429     0.09500
C1284       C  0.27807893  0.72228378  0.46583255     0.35400
C1285       C  0.18354133  0.83816486  0.47096630     0.38900
C1286       C  0.24756123  0.69247470  0.51423546    -0.04700
C1287       C  0.25950033  0.67395056  0.53380969     0.02500
C1288       C  0.27587939  0.70209030  0.54760010    -0.04300
C1289       C  0.28010360  0.74875579  0.54189079    -0.00500
C1290       C  0.26841048  0.76698972  0.52235651    -0.03100
C1291       C  0.23091180  0.66375818  0.49978543     0.36200
C1292       C  0.29700912  0.77826893  0.55577365     0.39800
C1293       C  0.25602845  0.62568971  0.53920015     0.38900
C1294       C  0.27352058  0.81453889  0.51620481     0.35900
C1295       C  0.20560116  0.79881993  0.51042179     0.36500
C1296       C  0.25600835  0.75933547  0.42564767     0.39800
N1297       N  0.25339300  0.58710913  0.54344432    -0.38300
N1298       N  0.21768574  0.64095633  0.48814889    -0.39900
N1299       N  0.31048608  0.80285065  0.56627876    -0.37600
N1300       N  0.27753689  0.85240791  0.51126875    -0.40000
N1301       N  0.29761695  0.69974594  0.46518950    -0.39800
N1302       N  0.26656372  0.75092808  0.40871261    -0.37400
N1303       N  0.16455192  0.86173100  0.47277348    -0.38500
N1304       N  0.19607338  0.80740685  0.52774009    -0.40100
C1305       C  0.13955361  0.98477265  0.52685472    -0.05100
C1306       C  0.12769061  0.00597471  0.50803582     0.09100
C1307       C  0.11525922  0.04947798  0.51031898    -0.02400
C1308       C  0.11591814  0.07304158  0.53110090    -0.00700
C1309       C  0.12965887  0.05346960  0.54994352    -0.04300
C1310       C  0.14052897  0.00798062  0.54768967     0.02700
C1311       C  0.12961673  0.98329806  0.48548449     0.09500
C1312       C  0.10240952  0.07058520  0.49093978     0.35400
C1313       C  0.15361674  0.98461835  0.56634274     0.38900
C1314       C  0.10731805  0.95851465  0.47668054    -0.04700
C1315       C  0.10965161  0.93594092  0.45570420     0.02500
C1316       C  0.13430628  0.93833640  0.44336057    -0.04300
C1317       C  0.15662842  0.96319884  0.45231293    -0.00500
C1318       C  0.15426287  0.98548718  0.47326507    -0.03100
C1319       C  0.08224038  0.95535207  0.48955202     0.36200
C1320       C  0.18287737  0.96286414  0.44093216     0.39800
C1321       C  0.08669917  0.91016931  0.44692669     0.38900
C1322       C  0.17768519  0.00912303  0.48267586     0.35900
C1323       C  0.15158843  0.93921798  0.52453213     0.36500
C1324       C  0.10247627  0.11761372  0.53256444     0.39800
N1325       N  0.06836012  0.88947148  0.44004604    -0.38300
N1326       N  0.06229040  0.95288721  0.49991524    -0.39900
N1327       N  0.20399220  0.96240648  0.43217850    -0.37600
N1328       N  0.19666593  0.02726213  0.49006502    -0.40000
N1329       N  0.09215492  0.08732509  0.47548133    -0.39800
N1330       N  0.09179330  0.15320781  0.53345791    -0.37400
N1331       N  0.16406554  0.96566923  0.58110176    -0.38500
N1332       N  0.16131561  0.90301698  0.52273619    -0.40100
C1333       C  0.21427320  0.62827647  0.35533039    -0.05100
C1334       C  0.22150668  0.60498105  0.37524663     0.09100
C1335       C  0.21238725  0.62255668  0.39608332    -0.02400
C1336       C  0.19778362  0.66465548  0.39716130    -0.00700
C1337       C  0.19140339  0.68910772  0.37725621    -0.04300
C1338       C  0.19875491  0.66952757  0.35631492     0.02700
C1339       C  0.23944619  0.56266405  0.37450511     0.09500
C1340       C  0.21895999  0.59795969  0.41654540     0.35400
C1341       C  0.19009086  0.69179784  0.33577171     0.38900
C1342       C  0.26804428  0.56683200  0.37629194    -0.04700
C1343       C  0.28493095  0.52716793  0.37692214     0.02500
C1344       C  0.27338900  0.48229205  0.37563673    -0.04300
C1345       C  0.24462667  0.47858164  0.37295216    -0.00500
C1346       C  0.22786133  0.51846699  0.37267344    -0.03100
C1347       C  0.28014354  0.61230239  0.37751314     0.36200
C1348       C  0.23213175  0.43399446  0.36928691     0.39800
C1349       C  0.31420746  0.53321540  0.37926913     0.38900
C1350       C  0.19849935  0.51420848  0.37041944     0.35900
C1351       C  0.22379973  0.61074323  0.33388022     0.36500
C1352       C  0.19103352  0.68407173  0.41897263     0.39800
N1353       N  0.33755253  0.53815225  0.38105982    -0.38300
N1354       N  0.28986391  0.64851093  0.37840410    -0.39900
N1355       N  0.22210659  0.39853899  0.36614198    -0.37600
N1356       N  0.17505177  0.51104186  0.36863142    -0.40000
N1357       N  0.22417805  0.57817693  0.43282215    -0.39800
N1358       N  0.18581154  0.69915671  0.43648373    -0.37400
N1359       N  0.18277794  0.70932302  0.31941993    -0.38500
N1360       N  0.23165458  0.59692928  0.31678846    -0.40100
C1361       C  0.29023227  0.12639398  0.36115624    -0.05100
C1362       C  0.28591300  0.10138239  0.38108680     0.09100
C1363       C  0.29613239  0.11860600  0.40152155    -0.02400
C1364       C  0.30860928  0.16236426  0.40240048    -0.00700
C1365       C  0.31110883  0.18949300  0.38266281    -0.04300
C1366       C  0.30316479  0.16982761  0.36185323     0.02700
C1367       C  0.26799774  0.05954065  0.38097235     0.09500
C1368       C  0.29246278  0.09208565  0.42191574     0.35400
C1369       C  0.30825077  0.19421392  0.34106342     0.38900
C1370       C  0.27887036  0.01538084  0.37672178    -0.04700
C1371       C  0.26155309  0.97646090  0.37608444     0.02500
C1372       C  0.23288127  0.98146244  0.37949177    -0.04300
C1373       C  0.22234294  0.02615414  0.38439567    -0.00500
C1374       C  0.23986609  0.06457894  0.38534983    -0.03100
C1375       C  0.30803712  0.01007847  0.37318191     0.36200
C1376       C  0.19350836  0.03321410  0.38904580     0.39800
C1377       C  0.27353377  0.93162506  0.37147680     0.38900
C1378       C  0.22903047  0.10965686  0.39125906     0.35900
C1379       C  0.28012210  0.10830007  0.34003927     0.36500
C1380       C  0.31739655  0.17970959  0.42403093     0.39800
N1381       N  0.28323884  0.89589520  0.36795201    -0.38300
N1382       N  0.33131574  0.00584396  0.37043390    -0.39900
N1383       N  0.17053611  0.03916861  0.39268937    -0.37600
N1384       N  0.22057670  0.14558608  0.39618098    -0.40000
N1385       N  0.28946045  0.07097872  0.43816510    -0.39800
N1386       N  0.32441017  0.19228165  0.44153181    -0.37400
N1387       N  0.31241711  0.21364921  0.32449164    -0.38500
N1388       N  0.27189132  0.09389667  0.32322823    -0.40100
C1389       C  0.82537269  0.09447856  0.72021594    -0.05100
C1390       C  0.81107875  0.13060070  0.73084806     0.09100
C1391       C  0.79561871  0.16186814  0.71806091    -0.02400
C1392       C  0.79522188  0.15809647  0.69444958    -0.00700
C1393       C  0.81122907  0.12377897  0.68349529    -0.04300
C1394       C  0.82545609  0.09089740  0.69668120     0.02700
C1395       C  0.81145127  0.13399088  0.75576050     0.09500
C1396       C  0.78006999  0.19781582  0.72933465     0.35400
C1397       C  0.83916608  0.05181922  0.68626044     0.38900
C1398       C  0.83217098  0.15915028  0.76665721    -0.04700
C1399       C  0.83415637  0.15830660  0.79024365     0.02500
C1400       C  0.81530980  0.13241510  0.80289499    -0.04300
C1401       C  0.79440438  0.10767824  0.79192062    -0.00500
C1402       C  0.79233811  0.10887544  0.76839846    -0.03100
C1403       C  0.85151642  0.18549115  0.75351849     0.36200
C1404       C  0.77596776  0.07881264  0.80469715     0.39800
C1405       C  0.85546961  0.18415068  0.80148097     0.38900
C1406       C  0.77087394  0.08355738  0.75706551     0.35900
C1407       C  0.83970308  0.06048698  0.73364227     0.36500
C1408       C  0.77805738  0.18938563  0.68175515     0.39800
N1409       N  0.87249604  0.20468542  0.81045360    -0.38300
N1410       N  0.86687850  0.20656000  0.74298800    -0.39900
N1411       N  0.76139076  0.05540693  0.81478519    -0.37600
N1412       N  0.75375074  0.06352706  0.74795113    -0.40000
N1413       N  0.76770726  0.22641737  0.73840842    -0.39800
N1414       N  0.76396632  0.21403825  0.67180747    -0.37400
N1415       N  0.85001559  0.02060788  0.67795901    -0.38500
N1416       N  0.85096591  0.03327647  0.74438014    -0.40100
C1417       C  0.96971924  0.11746895  0.61153832    -0.05100
C1418       C  0.98093017  0.15693816  0.62176862     0.09100
C1419       C  0.96344939  0.19146344  0.63040093    -0.02400
C1420       C  0.93479944  0.18658362  0.62878679    -0.00700
C1421       C  0.92346027  0.14677122  0.61870588    -0.04300
C1422       C  0.94118657  0.11214937  0.61014602     0.02700
C1423       C  0.01132327  0.16224564  0.62263054     0.09500
C1424       C  0.97507372  0.23234426  0.64057701     0.35400
C1425       C  0.93029390  0.07192248  0.59876477     0.38900
C1426       C  0.02483124  0.18802143  0.60603591    -0.04700
C1427       C  0.05360987  0.18741058  0.60465194     0.02500
C1428       C  0.06925849  0.16061960  0.61991135    -0.04300
C1429       C  0.05549576  0.13664124  0.63727418    -0.00500
C1430       C  0.02670113  0.13774828  0.63863806    -0.03100
C1431       C  0.00893138  0.21356404  0.58969523     0.36200
C1432       C  0.07069343  0.11003468  0.65364121     0.39800
C1433       C  0.06671864  0.21199039  0.58643729     0.38900
C1434       C  0.01268107  0.11254623  0.65616781     0.35900
C1435       C  0.98769449  0.08302007  0.60164170     0.36500
C1436       C  0.91706956  0.22246535  0.63763531     0.39800
N1437       N  0.07709723  0.23163723  0.57189042    -0.38300
N1438       N  0.99621009  0.23391534  0.57669259    -0.39900
N1439       N  0.08255361  0.08847438  0.66673378    -0.37600
N1440       N  0.00140536  0.09248144  0.67011013    -0.40000
N1441       N  0.98447634  0.26500126  0.64857604    -0.39800
N1442       N  0.90296089  0.25121415  0.64464132    -0.37400
N1443       N  0.92181855  0.03971173  0.58968806    -0.38500
N1444       N  0.00204544  0.05573589  0.59364726    -0.40100
C1445       C  0.78639874  0.23221182  0.50426686    -0.05100
C1446       C  0.75786588  0.23260024  0.50190836     0.09100
C1447       C  0.74114858  0.21340701  0.51865683    -0.02400
C1448       C  0.75291250  0.19515973  0.53829733    -0.00700
C1449       C  0.78171408  0.19486985  0.54098156    -0.04300
C1450       C  0.79840934  0.21284638  0.52342177     0.02700
C1451       C  0.74561099  0.25350059  0.48154450     0.09500
C1452       C  0.71177538  0.21224820  0.51550203     0.35400
C1453       C  0.82805979  0.21311348  0.52485234     0.38900
C1454       C  0.74817221  0.23075714  0.46069025    -0.04700
C1455       C  0.73869086  0.25211401  0.44108971     0.02500
C1456       C  0.72454093  0.29448916  0.44253788    -0.04300
C1457       C  0.72201429  0.31728267  0.46339931    -0.00500
C1458       C  0.73305797  0.29724155  0.48284698    -0.03100
C1459       C  0.75987545  0.18478621  0.45953266     0.36200
C1460       C  0.70852528  0.36170142  0.46468153     0.39800
C1461       C  0.74318091  0.23000026  0.41950603     0.38900
C1462       C  0.73140256  0.32129076  0.50422129     0.35900
C1463       C  0.80346940  0.25242195  0.48692571     0.36500
C1464       C  0.73513472  0.17631452  0.55543452     0.39800
N1465       N  0.74729775  0.21282584  0.40226718    -0.38300
N1466       N  0.76900293  0.14800003  0.45862043    -0.39900
N1467       N  0.69782462  0.39723054  0.46555330    -0.37600
N1468       N  0.73012126  0.34016275  0.52134529    -0.40000
N1469       N  0.68836885  0.21136841  0.51288986    -0.39800
N1470       N  0.72083869  0.16162971  0.56911486    -0.37400
N1471       N  0.85167452  0.21342368  0.52579553    -0.38500
N1472       N  0.81701646  0.26834579  0.47306760    -0.40100
C1473       C  0.79240153  0.35986471  0.63760661    -0.05100
C1474       C  0.78538563  0.38530380  0.61831993     0.09100
C1475       C  0.79429642  0.36981688  0.59707936    -0.02400
C1476       C  0.80768502  0.32689816  0.59484079    -0.00700
C1477       C  0.81143691  0.29826012  0.61383390    -0.04300
C1478       C  0.80546677  0.31652506  0.63538998     0.02700
C1479       C  0.76655349  0.42612323  0.61985652     0.09500
C1480       C  0.78840809  0.39722893  0.57733232     0.35400
C1481       C  0.81335077  0.29118070  0.65528770     0.38900
C1482       C  0.77695031  0.47121831  0.62068172    -0.04700
C1483       C  0.75906148  0.50954312  0.61970038     0.02500
C1484       C  0.73037200  0.50319017  0.61755737    -0.04300
C1485       C  0.72007177  0.45741012  0.61753444    -0.00500
C1486       C  0.73811070  0.41938682  0.61868757    -0.03100
C1487       C  0.80618102  0.47803081  0.62244819     0.36200
C1488       C  0.69101824  0.44865545  0.61561967     0.39800
C1489       C  0.77047932  0.55544848  0.62158487     0.38900
C1490       C  0.72742701  0.37280160  0.61822199     0.35900
C1491       C  0.78558490  0.37791676  0.65964542     0.36500
C1492       C  0.81652003  0.31199197  0.57274571     0.39800
N1493       N  0.77960543  0.59198964  0.62311043    -0.38300
N1494       N  0.82952750  0.48347723  0.62387998    -0.39900
N1495       N  0.66785526  0.44136488  0.61406285    -0.37600
N1496       N  0.71904243  0.33563971  0.61788321    -0.40000
N1497       N  0.78361295  0.41915402  0.56163509    -0.39800
N1498       N  0.82383860  0.30107887  0.55502753    -0.37400
N1499       N  0.82004429  0.27134073  0.67117964    -0.38500
N1500       N  0.78027421  0.39249816  0.67723853    -0.40100
C1501       C  0.73316829  0.95567746  0.59420915    -0.05100
C1502       C  0.72829071  0.93322109  0.61485175     0.09100
C1503       C  0.73797135  0.95331052  0.63490935    -0.02400
C1504       C  0.75394100  0.99370788  0.63422738    -0.00700
C1505       C  0.76046808  0.01444056  0.61343592    -0.04300
C1506       C  0.74896999  0.99638792  0.59352004     0.02700
C1507       C  0.71635263  0.88551894  0.61521516     0.09500
C1508       C  0.73218738  0.93142929  0.65623035     0.35400
C1509       C  0.75432577  0.01859245  0.57221000     0.38900
C1510       C  0.73343641  0.84763099  0.61033058    -0.04700
C1511       C  0.72316578  0.80240296  0.61110083     0.02500
C1512       C  0.69528523  0.79417340  0.61638193    -0.04300
C1513       C  0.67818313  0.83222585  0.62143632    -0.00500
C1514       C  0.68878573  0.87766995  0.62112344    -0.03100
C1515       C  0.76187116  0.85530855  0.60450589     0.36200
C1516       C  0.64998695  0.82468714  0.62770078     0.39800
C1517       C  0.74158153  0.76448539  0.60588996     0.38900
C1518       C  0.67148683  0.91643288  0.62710220     0.35900
C1519       C  0.72273359  0.93578284  0.57358695     0.36500
C1520       C  0.76329821  0.01435727  0.65504270     0.39800
N1521       N  0.75660044  0.73464571  0.60194048    -0.38300
N1522       N  0.78449517  0.86149878  0.59979914    -0.39900
N1523       N  0.62744666  0.81910857  0.63282045    -0.37600
N1524       N  0.65781040  0.94746554  0.63204247    -0.40000
N1525       N  0.72742354  0.91391472  0.67319893    -0.39800
N1526       N  0.77046990  0.03083994  0.67173343    -0.37400
N1527       N  0.75857586  0.03649745  0.55524446    -0.38500
N1528       N  0.71444697  0.91973834  0.55714754    -0.40100
C1529       C  0.79616191  0.88028035  0.27027950    -0.05100
C1530       C  0.81845219  0.86253308  0.25790113     0.09100
C1531       C  0.84053488  0.84175579  0.26926538    -0.02400
C1532       C  0.84062926  0.83975126  0.29292904    -0.00700
C1533       C  0.81909344  0.86004133  0.30542954    -0.04300
C1534       C  0.79665718  0.87984425  0.29395212     0.02700
C1535       C  0.81875037  0.86646026  0.23285248     0.09500
C1536       C  0.86320272  0.82256180  0.25655509     0.35400
C1537       C  0.77450661  0.90142803  0.30639914     0.38900
C1538       C  0.82428139  0.90926284  0.22268574    -0.04700
C1539       C  0.82331749  0.91363070  0.19912270     0.02500
C1540       C  0.81790186  0.87473181  0.18552419    -0.04300
C1541       C  0.81347414  0.83151568  0.19571595    -0.00500
C1542       C  0.81323542  0.82766961  0.21930572    -0.03100
C1543       C  0.83123390  0.94869664  0.23653690     0.36200
C1544       C  0.81058784  0.79040666  0.18203606     0.39800
C1545       C  0.82718504  0.95843745  0.18892852     0.38900
C1546       C  0.80726792  0.78375454  0.22969439     0.35900
C1547       C  0.77264201  0.89884786  0.25854413     0.36500
C1548       C  0.86238003  0.81519360  0.30435088     0.39800
N1549       N  0.83013803  0.99419271  0.18079005    -0.38300
N1550       N  0.83691313  0.98001870  0.24763366    -0.39900
N1551       N  0.80867865  0.75707874  0.17145225    -0.37600
N1552       N  0.80250000  0.74873873  0.23799423    -0.40000
N1553       N  0.88121262  0.80713449  0.24636405    -0.39800
N1554       N  0.87957062  0.79517160  0.31343848    -0.37400
N1555       N  0.75685500  0.91877300  0.31628770    -0.38500
N1556       N  0.75387409  0.91336745  0.24909570    -0.40100
C1557       C  0.97180148  0.80437995  0.38435208    -0.05100
C1558       C  0.98414852  0.82871973  0.36660928     0.09100
C1559       C  0.96760919  0.85057858  0.35044756    -0.02400
C1560       C  0.93890267  0.85065369  0.35278821    -0.00700
C1561       C  0.92643005  0.82807341  0.37117994    -0.04300
C1562       C  0.94310544  0.80363288  0.38656166     0.02700
C1563       C  0.01456241  0.83467276  0.36627220     0.09500
C1564       C  0.98025763  0.87397923  0.33168270     0.35400
C1565       C  0.93106878  0.78017826  0.40561573     0.38900
C1566       C  0.03185341  0.79842338  0.35924371    -0.04700
C1567       C  0.06048877  0.80211585  0.36169073     0.02500
C1568       C  0.07217915  0.84286898  0.37057351    -0.04300
C1569       C  0.05464118  0.88014691  0.37653085    -0.00500
C1570       C  0.02604996  0.87574196  0.37459417    -0.03100
C1571       C  0.02000355  0.75717855  0.34961439     0.36200
C1572       C  0.06563180  0.92246942  0.38584037     0.39800
C1573       C  0.07780330  0.76378024  0.35503868     0.38900
C1574       C  0.00824681  0.91303418  0.38193239     0.35900
C1575       C  0.98879708  0.78188113  0.40100652     0.36500
C1576       C  0.92231617  0.87463608  0.33634952     0.39800
N1577       N  0.09157214  0.73301855  0.34987580    -0.38300
N1578       N  0.01042529  0.72443040  0.34184910    -0.39900
N1579       N  0.07423828  0.95635055  0.39323396    -0.37600
N1580       N  0.99398557  0.94264018  0.38777003    -0.40000
N1581       N  0.99032330  0.89265509  0.31669105    -0.39800
N1582       N  0.90914168  0.89408529  0.32331929    -0.37400
N1583       N  0.92152855  0.76149452  0.42084273    -0.38500
N1584       N  0.00241105  0.76403922  0.41427125    -0.40100
C1585       C  0.84709115  0.98160587  0.47212189    -0.05100
C1586       C  0.87064934  0.97334733  0.48518083     0.09100
C1587       C  0.89171300  0.94509488  0.47649729    -0.02400
C1588       C  0.88900580  0.92455920  0.45505979    -0.00700
C1589       C  0.86478823  0.93085792  0.44246853    -0.04300
C1590       C  0.84387469  0.95974463  0.45111105     0.02700
C1591       C  0.87215241  0.99271488  0.50854859     0.09500
C1592       C  0.91580742  0.93606940  0.48991126     0.35400
C1593       C  0.81792033  0.96368257  0.43950905     0.38900
C1594       C  0.85571181  0.97389065  0.52560348    -0.04700
C1595       C  0.85199381  0.99757226  0.54613075     0.02500
C1596       C  0.86659030  0.03888535  0.55058470    -0.04300
C1597       C  0.88620174  0.05366426  0.53448574    -0.00500
C1598       C  0.88804011  0.03186063  0.51327011    -0.03100
C1599       C  0.84232294  0.93006680  0.52187163     0.36200
C1600       C  0.90496393  0.09078081  0.53964388     0.39800
C1601       C  0.83203342  0.97988627  0.56190360     0.38900
C1602       C  0.90576327  0.05047026  0.49603663     0.35900
C1603       C  0.82572950  0.01178881  0.48066665     0.36500
C1604       C  0.91124899  0.89713996  0.44590299     0.39800
N1605       N  0.81599363  0.96549996  0.57429475    -0.38300
N1606       N  0.83191679  0.89479195  0.51920320    -0.39900
N1607       N  0.92012720  0.12006010  0.54380133    -0.37600
N1608       N  0.91988275  0.06535097  0.48228746    -0.40000
N1609       N  0.93503594  0.92875496  0.50061592    -0.39800
N1610       N  0.92901658  0.87544183  0.43851317    -0.37400
N1611       N  0.79698543  0.96631981  0.43060294    -0.38500
N1612       N  0.80874115  0.03587485  0.48752279    -0.40100
C1613       C  0.72142666  0.75587685  0.51725702    -0.05100
C1614       C  0.73991151  0.72845831  0.50487451     0.09100
C1615       C  0.74721856  0.68422080  0.51276713    -0.02400
C1616       C  0.73613821  0.66764016  0.53309879    -0.00700
C1617       C  0.71795037  0.69546977  0.54559000    -0.04300
C1618       C  0.71087812  0.73986845  0.53770398     0.02700
C1619       C  0.75266000  0.74770618  0.48414660     0.09500
C1620       C  0.76591199  0.65574094  0.49983844     0.35400
C1621       C  0.69296720  0.76970709  0.55077405     0.38900
C1622       C  0.77265476  0.78227866  0.48611845    -0.04700
C1623       C  0.78420402  0.80189034  0.46675868     0.02500
C1624       C  0.77658965  0.78602261  0.44517390    -0.04300
C1625       C  0.75618188  0.75177229  0.44324655    -0.00500
C1626       C  0.74396132  0.73327424  0.46268881    -0.03100
C1627       C  0.78141626  0.79753559  0.50820323     0.36200
C1628       C  0.74864911  0.73376442  0.42138305     0.39800
C1629       C  0.80376140  0.83888006  0.46913934     0.38900
C1630       C  0.72239490  0.69940988  0.46067893     0.35900
C1631       C  0.71306820  0.80059529  0.50879998     0.36500
C1632       C  0.74270036  0.62161671  0.54080554     0.39800
N1633       N  0.81939282  0.86834729  0.47105204    -0.38300
N1634       N  0.78821880  0.80961761  0.52586137    -0.39900
N1635       N  0.74276150  0.71939626  0.40391194    -0.37600
N1636       N  0.70513783  0.67248545  0.45912047    -0.40000
N1637       N  0.78069934  0.63296711  0.48939985    -0.39800
N1638       N  0.74782598  0.58487013  0.54700543    -0.37400
N1639       N  0.67875007  0.79390452  0.56098614    -0.38500
N1640       N  0.70638429  0.83620431  0.50205041    -0.40100
C1641       C  0.71789702  0.12788759  0.35461187    -0.05100
C1642       C  0.71974370  0.10171105  0.37444731     0.09100
C1643       C  0.70578399  0.11673257  0.39387015    -0.02400
C1644       C  0.69105940  0.15871646  0.39380918    -0.00700
C1645       C  0.69142457  0.18754011  0.37453920    -0.04300
C1646       C  0.70379957  0.17047584  0.35460429     0.02700
C1647       C  0.73689175  0.05870079  0.37509159     0.09500
C1648       C  0.70795147  0.09009747  0.41436890     0.35400
C1649       C  0.70211960  0.19678752  0.33399190     0.38900
C1650       C  0.76541280  0.06173146  0.37787043    -0.04700
C1651       C  0.78158791  0.02143502  0.37898771     0.02500
C1652       C  0.76945759  0.97719199  0.37680772    -0.04300
C1653       C  0.74067347  0.97449171  0.37417291    -0.00500
C1654       C  0.72459435  0.01503268  0.37338527    -0.03100
C1655       C  0.77824082  0.10657896  0.37946414     0.36200
C1656       C  0.72738359  0.93027310  0.37151968     0.39800
C1657       C  0.81072206  0.02609730  0.38294511     0.38900
C1658       C  0.69526345  0.01199792  0.37040256     0.35900
C1659       C  0.73132045  0.11156227  0.33435254     0.36500
C1660       C  0.67690835  0.17282007  0.41414684     0.39800
N1661       N  0.83393336  0.02989033  0.38606539    -0.38300
N1662       N  0.78873223  0.14214208  0.38056878    -0.39900
N1663       N  0.71668880  0.89505447  0.36942731    -0.37600
N1664       N  0.67185823  0.00974343  0.36802408    -0.40000
N1665       N  0.70991965  0.06894713  0.43071682    -0.39800
N1666       N  0.66548902  0.18352429  0.43039276    -0.37400
N1667       N  0.70073105  0.21790077  0.31759101    -0.38500
N1668       N  0.74211535  0.09855921  0.31821829    -0.40100
C1669       C  0.79040625  0.62354023  0.34880187    -0.05100
C1670       C  0.78574373  0.59673437  0.36809743     0.09100
C1671       C  0.79544673  0.61173940  0.38910380    -0.02400
C1672       C  0.80726766  0.65556940  0.39129465    -0.00700
C1673       C  0.80986572  0.68449967  0.37226907    -0.04300
C1674       C  0.80247082  0.66742577  0.35084551     0.02700
C1675       C  0.76752034  0.55575236  0.36709742     0.09500
C1676       C  0.79193197  0.58282479  0.40871347     0.35400
C1677       C  0.80687654  0.69521606  0.33099953     0.38900
C1678       C  0.77846396  0.51109380  0.36514449    -0.04700
C1679       C  0.76117420  0.47239684  0.36621458     0.02500
C1680       C  0.73263361  0.47823651  0.36980442    -0.04300
C1681       C  0.72180591  0.52361851  0.37142316    -0.00500
C1682       C  0.73917174  0.56198715  0.36993603    -0.03100
C1683       C  0.80770162  0.50509195  0.36219707     0.36200
C1684       C  0.69284657  0.53165699  0.37538402     0.39800
C1685       C  0.77284378  0.42696377  0.36280851     0.38900
C1686       C  0.72792698  0.60816389  0.37169588     0.35900
C1687       C  0.78201339  0.60633457  0.32700132     0.36500
C1688       C  0.81442442  0.67203007  0.41358213     0.39800
N1689       N  0.78221268  0.39067029  0.35998103    -0.38300
N1690       N  0.83099517  0.50044231  0.35990749    -0.39900
N1691       N  0.66988652  0.53836706  0.37861077    -0.37600
N1692       N  0.71881383  0.64495897  0.37300328    -0.40000
N1693       N  0.78920410  0.55966000  0.42431691    -0.39800
N1694       N  0.81998913  0.68503720  0.43138102    -0.37400
N1695       N  0.81043792  0.71735730  0.31515143    -0.38500
N1696       N  0.77539989  0.59234197  0.30963221    -0.40100
loop_ 
_geom_bond_atom_site_label_1 
_geom_bond_atom_site_label_2 
_geom_bond_distance 
_geom_bond_site_symmetry_2 
_ccdc_geom_bond_type 
Fe1          O17   2.073       .  S
Fe1           O7   2.058       .  S
Fe1          O14   2.062       .  S
Fe1           O6   2.068       .  S
Fe1          O12   1.954       .  S
Fe2           O5   2.065       .  S
Fe2           O9   2.059       .  S
Fe2          O13   2.088       .  S
Fe2          O18   2.047       .  S
Fe2          O12   1.950       .  S
Fe3          O21   2.062       .  S
Fe3           O8   2.082       .  S
Fe3          O15   2.093       .  S
Fe3           O4   2.072       .  S
Fe3          O12   1.953       .  S
O4           C11   1.267       .  A
O5           C19   1.271       .  A
O6           C11   1.265       .  A
O7           C10   1.274       .  A
O8           C20   1.273       .  A
O9           C22   1.264       .  A
C10          O15   1.278       .  A
C10        C1533   1.487       .  S
C11        C1652   1.504       .  S
O13          C16   1.277       .  A
O14          C16   1.274       .  A
C16        C1589   1.490       .  S
O17          C22   1.266       .  A
O18          C20   1.267       .  A
C19          O21   1.270       .  A
C19        C1673   1.486       .  S
C20        C1624   1.489       .  S
C22        C1561   1.494       .  S
Fe23         O39   2.089       .  S
Fe23         O29   2.046       .  S
Fe23         O36   2.060       .  S
Fe23         O28   2.093       .  S
Fe23         O34   1.936       .  S
Fe24         O27   2.097       .  S
Fe24         O31   2.052       .  S
Fe24         O35   2.086       .  S
Fe24         O40   2.026       .  S
Fe24         O34   1.935       .  S
Fe25         O43   2.061       .  S
Fe25         O30   2.092       .  S
Fe25         O37   2.089       .  S
Fe25         O26   2.073       .  S
Fe25         O34   1.949       .  S
O26          C33   1.270       .  A
O27          C41   1.276       .  A
O28          C33   1.273       .  A
O29          C32   1.271       .  A
O30          C42   1.274       .  A
O31          C44   1.266       .  A
C32          O37   1.275       .  A
C32        C1393   1.491       .  S
C33        C1505   1.494       .  S
O35          C38   1.275       .  A
O36          C38   1.272       .  A
C38        C1596   1.508       .  S
O39          C44   1.273       .  A
O40          C42   1.260       .  A
C41          O43   1.271       .  A
C41        C1477   1.499       .  S
C42        C1449   1.494       .  S
C44        C1421   1.491       .  S
Fe45         O61   2.052       .  S
Fe45         O51   2.069       .  S
Fe45         O58   2.076       .  S
Fe45         O50   2.052       .  S
Fe45         O56   1.965       .  S
Fe46         O49   2.035       .  S
Fe46         O53   2.090       .  S
Fe46         O57   2.065       .  S
Fe46         O62   2.092       .  S
Fe46         O56   1.968       .  S
Fe47         O65   2.081       .  S
Fe47         O52   2.059       .  S
Fe47         O59   2.067       .  S
Fe47         O48   2.096       .  S
Fe47         O56   1.956       .  S
O48          C55   1.281       .  A
O49          C63   1.266       .  A
O50          C55   1.273       .  A
O51          C54   1.264       .  A
O52          C64   1.268       .  A
O53          C66   1.275       .  A
C54          O59   1.263       .  A
C54        C1372   1.509       .  S
C55        C1260   1.509       .  S
O57          C60   1.269       .  A
O58          C60   1.269       .  A
C60        C1568   1.499       .  S
O61          C66   1.270       .  A
O62          C64   1.274       .  A
C63          O65   1.275       .  A
C63        C1281   1.490       .  S
C64        C1337   1.497       .  S
C66        C1316   1.486       .  S
Fe67         O83   2.050       .  S
Fe67         O73   2.081       .  S
Fe67         O80   2.081       .  S
Fe67         O72   2.051       .  S
Fe67         O78   1.960       .  S
Fe68         O71   2.050       .  S
Fe68         O75   2.086       .  S
Fe68         O79   2.061       .  S
Fe68         O84   2.080       .  S
Fe68         O78   1.954       .  S
Fe69         O87   2.078       .  S
Fe69         O74   2.054       .  S
Fe69         O81   2.067       .  S
Fe69         O70   2.083       .  S
Fe69         O78   1.955       .  S
O70          C77   1.277       .  A
O71          C85   1.268       .  A
O72          C77   1.273       .  A
O73          C76   1.269       .  A
O74          C86   1.267       .  A
O75          C88   1.275       .  A
C76          O81   1.265       .  A
C76        C1176   1.496       .  S
C77        C1141   1.485       .  S
O79          C82   1.265       .  A
O80          C82   1.268       .  A
C82        C1428   1.498       .  S
O83          C88   1.271       .  A
O84          C86   1.272       .  A
C85          O87   1.274       .  A
C85        C1225   1.481       .  S
C86        C1197   1.496       .  S
C88        C1309   1.511       .  S
Fe89        O105   2.088       .  S
Fe89         O95   2.061       .  S
Fe89        O102   2.066       .  S
Fe89         O94   2.085       .  S
Fe89        O100   1.945       .  S
Fe90         O93   2.091       .  S
Fe90         O97   2.053       .  S
Fe90        O101   2.087       .  S
Fe90        O106   2.039       .  S
Fe90        O100   1.944       .  S
Fe91        O109   2.066       .  S
Fe91         O96   2.106       .  S
Fe91        O103   2.106       .  S
Fe91         O92   2.080       .  S
Fe91        O100   1.948       .  S
O92          C99   1.273       .  A
O93         C107   1.274       .  A
O94          C99   1.271       .  A
O95          C98   1.273       .  A
O96         C108   1.277       .  A
O97         C110   1.267       .  A
C98         O103   1.280       .  A
C98        C1064   1.491       .  S
C99        C1344   1.511       .  S
O101        C104   1.273       .  A
O102        C104   1.272       .  A
C104       C1120   1.496       .  S
O105        C110   1.273       .  A
O106        C108   1.263       .  A
C107        O109   1.272       .  A
C107       C1365   1.504       .  S
C108       C1232   1.504       .  S
C110       C1092   1.491       .  S
Fe111       O127   2.080       .  S
Fe111       O117   2.047       .  S
Fe111       O124   2.052       .  S
Fe111       O116   2.093       .  S
Fe111       O122   1.951       .  S
Fe112       O115   2.108       .  S
Fe112       O119   2.060       .  S
Fe112       O123   2.109       .  S
Fe112       O128   2.035       .  S
Fe112       O122   1.947       .  S
Fe113       O131   2.051       .  S
Fe113       O118   2.092       .  S
Fe113       O125   2.096       .  S
Fe113       O114   2.057       .  S
Fe113       O122   1.943       .  S
O114        C121   1.265       .  A
O115        C129   1.278       .  A
O116        C121   1.271       .  A
O117        C120   1.271       .  A
O118        C130   1.274       .  A
O119        C132   1.266       .  A
C120        O125   1.279       .  A
C120       C1001   1.482       .  S
C121       C1204   1.504       .  S
O123        C126   1.281       .  A
O124        C126   1.273       .  A
C126       C1113   1.501       .  S
O127        C132   1.270       .  A
O128        C130   1.264       .  A
C129        O131   1.267       .  A
C129       C1169   1.499       .  S
C130       C1288   1.473       .  S
C132       C1036   1.492       .  S
Fe133       O149   2.067       .  S
Fe133       O139   2.064       .  S
Fe133       O146   2.067       .  S
Fe133       O138   2.056       .  S
Fe133       O144   1.956       .  S
Fe134       O137   2.042       .  S
Fe134       O141   2.083       .  S
Fe134       O145   2.062       .  S
Fe134       O150   2.084       .  S
Fe134       O144   1.953       .  S
Fe135       O153   2.064       .  S
Fe135       O140   2.062       .  S
Fe135       O147   2.063       .  S
Fe135       O136   2.086       .  S
Fe135       O144   1.952       .  S
O136        C143   1.276       .  A
O137        C151   1.265       .  A
O138        C143   1.274       .  A
O139        C142   1.265       .  A
O140        C152   1.272       .  A
O141        C154   1.275       .  A
C142        O147   1.265       .  A
C142       C1680   1.497       .  S
C143        C945   1.479       .  S
O145        C148   1.266       .  A
O146        C148   1.267       .  A
C148       C1085   1.489       .  S
O149        C154   1.274       .  A
O150        C152   1.274       .  A
C151        O153   1.269       .  A
C151       C1456   1.471       .  S
C152       C1645   1.504       .  S
C154        C973   1.496       .  S
Fe155       O171   2.058       .  S
Fe155       O161   2.080       .  S
Fe155       O168   2.078       .  S
Fe155       O160   2.053       .  S
Fe155       O166   1.954       .  S
Fe156       O159   2.029       .  S
Fe156       O163   2.093       .  S
Fe156       O167   2.062       .  S
Fe156       O172   2.099       .  S
Fe156       O166   1.951       .  S
Fe157       O175   2.092       .  S
Fe157       O162   2.057       .  S
Fe157       O169   2.066       .  S
Fe157       O158   2.100       .  S
Fe157       O166   1.941       .  S
O158        C165   1.282       .  A
O159        C173   1.263       .  A
O160        C165   1.276       .  A
O161        C164   1.265       .  A
O162        C174   1.269       .  A
O163        C176   1.279       .  A
C164        O169   1.265       .  A
C164       C1484   1.508       .  S
C165        C917   1.486       .  S
O167        C170   1.266       .  A
O168        C170   1.268       .  A
C170       C1029   1.493       .  S
O171        C176   1.275       .  A
O172        C174   1.276       .  A
C173        O175   1.275       .  A
C173       C1617   1.477       .  S
C174       C1512   1.500       .  S
C176        C980   1.502       .  S
Fe177       O193   2.061       .  S
Fe177       O183   2.073       .  S
Fe177       O190   2.072       .  S
Fe177       O182   2.051       .  S
Fe177       O188   1.948       .  S
Fe178       O181   2.042       .  S
Fe178       O185   2.088       .  S
Fe178       O189   2.082       .  S
Fe178       O194   2.106       .  S
Fe178       O188   1.954       .  S
Fe179       O197   2.101       .  S
Fe179       O184   2.046       .  S
Fe179       O191   2.074       .  S
Fe179       O180   2.097       .  S
Fe179       O188   1.942       .  S
O180        C187   1.280       .  A
O181        C195   1.267       .  A
O182        C187   1.273       .  A
O183        C186   1.266       .  A
O184        C196   1.266       .  A
O185        C198   1.276       .  A
C186        O191   1.268       .  A
C186        C868   1.504       .  S
C187       C1540   1.483       .  S
O189        C192   1.273       .  A
O190        C192   1.269       .  A
C192        C784   1.502       .  S
O193        C198   1.273       .  A
O194        C196   1.276       .  A
C195        O197   1.277       .  A
C195        C833   1.492       .  S
C196        C889   1.501       .  S
C198        C812   1.495       .  S
Fe199       O215   2.059       .  S
Fe199       O205   2.082       .  S
Fe199       O212   2.078       .  S
Fe199       O204   2.051       .  S
Fe199       O210   1.958       .  S
Fe200       O203   2.042       .  S
Fe200       O207   2.092       .  S
Fe200       O211   2.067       .  S
Fe200       O216   2.092       .  S
Fe200       O210   1.960       .  S
Fe201       O219   2.072       .  S
Fe201       O206   2.063       .  S
Fe201       O213   2.074       .  S
Fe201       O202   2.084       .  S
Fe201       O210   1.951       .  S
O202        C209   1.278       .  A
O203        C217   1.264       .  A
O204        C209   1.273       .  A
O205        C208   1.268       .  A
O206        C218   1.271       .  A
O207        C220   1.279       .  A
C208        O213   1.265       .  A
C208        C749   1.513       .  S
C209       C1400   1.474       .  S
O211        C214   1.266       .  A
O212        C214   1.268       .  A
C214        C672   1.504       .  S
O215        C220   1.274       .  A
O216        C218   1.276       .  A
C217        O219   1.272       .  A
C217        C693   1.480       .  S
C218        C721   1.500       .  S
C220        C805   1.494       .  S
Fe221       O237   2.095       .  S
Fe221       O227   2.065       .  S
Fe221       O234   2.054       .  S
Fe221       O226   2.082       .  S
Fe221       O232   1.964       .  S
Fe222       O225   2.075       .  S
Fe222       O229   2.047       .  S
Fe222       O233   2.096       .  S
Fe222       O238   2.038       .  S
Fe222       O232   1.957       .  S
Fe223       O241   2.059       .  S
Fe223       O228   2.081       .  S
Fe223       O235   2.098       .  S
Fe223       O224   2.054       .  S
Fe223       O232   1.954       .  S
O224        C231   1.263       .  A
O225        C239   1.272       .  A
O226        C231   1.267       .  A
O227        C230   1.276       .  A
O228        C240   1.273       .  A
O229        C242   1.261       .  A
C230        O235   1.280       .  A
C230       C1253   1.482       .  S
C231        C644   1.494       .  S
O233        C236   1.278       .  A
O234        C236   1.271       .  A
C236        C581   1.484       .  S
O237        C242   1.270       .  A
O238        C240   1.264       .  A
C239        O241   1.269       .  A
C239        C609   1.498       .  S
C240        C553   1.491       .  S
C242        C777   1.498       .  S
Fe243       O259   2.095       .  S
Fe243       O249   2.053       .  S
Fe243       O256   2.061       .  S
Fe243       O248   2.077       .  S
Fe243       O254   1.947       .  S
Fe244       O247   2.097       .  S
Fe244       O251   2.059       .  S
Fe244       O255   2.093       .  S
Fe244       O260   2.033       .  S
Fe244       O254   1.950       .  S
Fe245       O263   2.051       .  S
Fe245       O250   2.096       .  S
Fe245       O257   2.083       .  S
Fe245       O246   2.061       .  S
Fe245       O254   1.947       .  S
O246        C253   1.266       .  A
O247        C261   1.272       .  A
O248        C253   1.268       .  A
O249        C252   1.272       .  A
O250        C262   1.277       .  A
O251        C264   1.270       .  A
C252        O257   1.276       .  A
C252       C1148   1.478       .  S
C253        C469   1.480       .  S
O255        C258   1.274       .  A
O256        C258   1.269       .  A
C258        C588   1.504       .  S
O259        C264   1.275       .  A
O260        C262   1.266       .  A
C261        O263   1.265       .  A
C261        C504   1.503       .  S
C262        C532   1.475       .  S
C264        C665   1.491       .  S
Fe265       O281   2.050       .  S
Fe265       O271   2.084       .  S
Fe265       O278   2.089       .  S
Fe265       O270   2.057       .  S
Fe265       O276   1.953       .  S
Fe266       O269   2.033       .  S
Fe266       O273   2.097       .  S
Fe266       O277   2.044       .  S
Fe266       O282   2.079       .  S
Fe266       O276   1.954       .  S
Fe267       O285   2.102       .  S
Fe267       O272   2.064       .  S
Fe267       O279   2.062       .  S
Fe267       O268   2.113       .  S
Fe267       O276   1.947       .  S
O268        C275   1.282       .  A
O269        C283   1.266       .  A
O270        C275   1.273       .  A
O271        C274   1.269       .  A
O272        C284   1.270       .  A
O273        C286   1.274       .  A
C274        O279   1.266       .  A
C274        C616   1.492       .  S
C275       C1057   1.515       .  S
O277        C280   1.264       .  A
O278        C280   1.272       .  A
C280        C413   1.483       .  S
O281        C286   1.269       .  A
O282        C284   1.271       .  A
C283        O285   1.280       .  A
C283        C525   1.497       .  S
C284        C637   1.497       .  S
C286        C441   1.482       .  S
Fe287       O303   2.060       .  S
Fe287       O293   2.077       .  S
Fe287       O300   2.086       .  S
Fe287       O292   2.062       .  S
Fe287       O298   1.938       .  S
Fe288       O291   2.039       .  S
Fe288       O295   2.089       .  S
Fe288       O299   2.063       .  S
Fe288       O304   2.089       .  S
Fe288       O298   1.953       .  S
Fe289       O307   2.095       .  S
Fe289       O294   2.050       .  S
Fe289       O301   2.064       .  S
Fe289       O290   2.087       .  S
Fe289       O298   1.943       .  S
O290        C297   1.276       .  A
O291        C305   1.268       .  A
O292        C297   1.274       .  A
O293        C296   1.269       .  A
O294        C306   1.265       .  A
O295        C308   1.272       .  A
C296        O301   1.267       .  A
C296        C497   1.481       .  S
C297       C1008   1.491       .  S
O299        C302   1.271       .  A
O300        C302   1.274       .  A
C302        C385   1.494       .  S
O303        C308   1.269       .  A
O304        C306   1.271       .  A
C305        O307   1.276       .  A
C305        C560   1.475       .  S
C306        C476   1.496       .  S
C308        C448   1.505       .  S
Fe309       O325   2.070       .  S
Fe309       O315   2.050       .  S
Fe309       O322   2.058       .  S
Fe309       O314   2.077       .  S
Fe309       O320   1.946       .  S
Fe310       O313   2.084       .  S
Fe310       O317   2.058       .  S
Fe310       O321   2.076       .  S
Fe310       O326   2.034       .  S
Fe310       O320   1.946       .  S
Fe311       O329   2.066       .  S
Fe311       O316   2.095       .  S
Fe311       O323   2.098       .  S
Fe311       O312   2.075       .  S
Fe311       O320   1.950       .  S
O312        C319   1.268       .  A
O313        C327   1.273       .  A
O314        C319   1.268       .  A
O315        C318   1.272       .  A
O316        C328   1.276       .  A
O317        C330   1.266       .  A
C318        O323   1.279       .  A
C318        C952   1.502       .  S
C319        C896   1.492       .  S
O321        C324   1.274       .  A
O322        C324   1.272       .  A
C324        C357   1.508       .  S
O325        C330   1.268       .  A
O326        C328   1.263       .  A
C327        O329   1.271       .  A
C327        C861   1.494       .  S
C328        C700   1.501       .  S
C330        C420   1.488       .  S
Fe331       O347   2.097       .  S
Fe331       O337   2.045       .  S
Fe331       O344   2.049       .  S
Fe331       O336   2.086       .  S
Fe331       O342   1.961       .  S
Fe332       O335   2.084       .  S
Fe332       O339   2.049       .  S
Fe332       O343   2.102       .  S
Fe332       O348   2.031       .  S
Fe332       O342   1.948       .  S
Fe333       O351   2.070       .  S
Fe333       O338   2.095       .  S
Fe333       O345   2.097       .  S
Fe333       O334   2.077       .  S
Fe333       O342   1.951       .  S
O334        C341   1.270       .  A
O335        C349   1.274       .  A
O336        C341   1.269       .  A
O337        C340   1.273       .  A
O338        C350   1.276       .  A
O339        C352   1.261       .  A
C340        O345   1.280       .  A
C340        C924   1.480       .  S
C341        C728   1.511       .  S
O343        C346   1.280       .  A
O344        C346   1.271       .  A
C346        C364   1.491       .  S
O347        C352   1.271       .  A
O348        C350   1.264       .  A
C349        O351   1.272       .  A
C349        C756   1.503       .  S
C350        C840   1.488       .  S
C352        C392   1.496       .  S
C353        C354   1.406       .  A
C353        C358   1.411       .  A
C353        C371   1.451   1_554  S
C354        C359   1.495   1_554  S
C354        C355   1.407       .  A
C355        C356   1.410       .  A
C355        C360   1.451       .  S
C356        C357   1.426       .  A
C356        C372   1.451       .  S
C357        C358   1.427       .  A
C358        C361   1.454       .  S
C359        C362   1.409       .  A
C359        C366   1.408       .  A
C360        N377   1.155       .  T
C361        N379   1.156       .  T
C362        C363   1.412       .  A
C362        C367   1.450       .  S
C363        C364   1.415       .  A
C363        C369   1.450       .  S
C364        C365   1.420       .  A
C365        C366   1.409       .  A
C365        C368   1.451       .  S
C366        C370   1.452       .  S
C367        N374   1.157   1_556  T
C368        N375   1.157       .  T
C369        N373   1.158       .  T
C370        N376   1.158       .  T
C371        N380   1.158       .  T
C372        N378   1.159       .  T
C381        C382   1.411       .  A
C381        C386   1.416       .  A
C381        C399   1.449       .  S
C382        C387   1.500       .  S
C382        C383   1.409       .  A
C383        C384   1.409       .  A
C383        C388   1.452       .  S
C384        C385   1.419       .  A
C384        C400   1.453       .  S
C385        C386   1.417       .  A
C386        C389   1.450       .  S
C387        C390   1.409       .  A
C387        C394   1.411       .  A
C388        N405   1.157       .  T
C389        N407   1.158       .  T
C390        C391   1.411       .  A
C390        C395   1.452       .  S
C391        C392   1.420       .  A
C391        C397   1.452       .  S
C392        C393   1.416       .  A
C393        C394   1.415       .  A
C393        C396   1.450       .  S
C394        C398   1.450       .  S
C395        N402   1.157       .  T
C396        N403   1.157       .  T
C397        N401   1.158       .  T
C398        N404   1.157       .  T
C399        N408   1.157       .  T
C400        N406   1.157       .  T
C409        C410   1.409       .  A
C409        C414   1.406       .  A
C409        C427   1.452       .  S
C410        C415   1.493       .  S
C410        C411   1.411       .  A
C411        C412   1.413       .  A
C411        C416   1.450       .  S
C412        C413   1.413       .  A
C412        C428   1.450       .  S
C413        C414   1.416       .  A
C414        C417   1.452       .  S
C415        C418   1.409       .  A
C415        C422   1.410       .  A
C416        N433   1.157       .  T
C417        N435   1.157       .  T
C418        C419   1.407       .  A
C418        C423   1.453       .  S
C419        C420   1.419       .  A
C419        C425   1.453       .  S
C420        C421   1.416       .  A
C421        C422   1.413       .  A
C421        C424   1.450       .  S
C422        C426   1.450       .  S
C423        N430   1.157       .  T
C424        N431   1.157       .  T
C425        N429   1.157       .  T
C426        N432   1.157       .  T
C427        N436   1.157       .  T
C428        N434   1.157       .  T
C437        C438   1.413       .  A
C437        C442   1.415       .  A
C437        C455   1.450       .  S
C438        C443   1.497   1_554  S
C438        C439   1.410       .  A
C439        C440   1.407       .  A
C439        C444   1.451       .  S
C440        C441   1.414       .  A
C440        C456   1.453       .  S
C441        C442   1.413       .  A
C442        C445   1.450       .  S
C443        C446   1.407       .  A
C443        C450   1.408       .  A
C444        N461   1.157       .  T
C445        N463   1.157       .  T
C446        C447   1.411       .  A
C446        C451   1.452       .  S
C447        C448   1.423       .  A
C447        C453   1.451       .  S
C448        C449   1.426       .  A
C449        C450   1.413       .  A
C449        C452   1.452       .  S
C450        C454   1.452   1_556  S
C451        N458   1.157       .  T
C452        N459   1.158       .  T
C453        N457   1.157       .  T
C454        N460   1.157       .  T
C455        N464   1.157   1_554  T
C456        N462   1.157       .  T
C465        C466   1.414       .  A
C465        C470   1.412       .  A
C465        C483   1.451       .  S
C466        C471   1.498       .  S
C466        C467   1.410       .  A
C467        C468   1.411   1_565  A
C467        C472   1.450       .  S
C468        C469   1.413       .  A
C468        C484   1.451       .  S
C469        C470   1.411   1_545  A
C470        C473   1.451   1_565  S
C471        C474   1.408       .  A
C471        C478   1.411       .  A
C472        N489   1.157       .  T
C473        N491   1.157       .  T
C474        C475   1.407       .  A
C474        C479   1.453       .  S
C475        C476   1.422       .  A
C475        C481   1.453       .  S
C476        C477   1.417       .  A
C477        C478   1.416       .  A
C477        C480   1.450       .  S
C478        C482   1.449       .  S
C479        N486   1.157       .  T
C480        N487   1.157       .  T
C481        N485   1.158       .  T
C482        N488   1.157       .  T
C483        N492   1.158       .  T
C484        N490   1.157       .  T
C493        C494   1.412       .  A
C493        C498   1.412       .  A
C493        C511   1.450       .  S
C494        C499   1.501       .  S
C494        C495   1.414       .  A
C495        C496   1.413       .  A
C495        C500   1.451       .  S
C496        C497   1.411       .  A
C496        C512   1.451       .  S
C497        C498   1.412       .  A
C498        C501   1.452       .  S
C499        C502   1.408       .  A
C499        C506   1.411       .  A
C500        N517   1.157       .  T
C501        N519   1.157       .  T
C502        C503   1.410       .  A
C502        C507   1.452       .  S
C503        C504   1.424       .  A
C503        C509   1.453       .  S
C504        C505   1.419       .  A
C505        C506   1.418       .  A
C505        C508   1.448       .  S
C506        C510   1.450       .  S
C507        N514   1.158       .  T
C508        N515   1.158       .  T
C509        N513   1.156       .  T
C510        N516   1.156       .  T
C511        N520   1.157       .  T
C512        N518   1.158       .  T
C521        C522   1.404       .  A
C521        C526   1.408       .  A
C521        C539   1.454   1_554  S
C522        C527   1.490   1_554  S
C522        C523   1.408       .  A
C523        C524   1.411       .  A
C523        C528   1.451       .  S
C524        C525   1.421       .  A
C524        C540   1.451       .  S
C525        C526   1.425       .  A
C526        C529   1.450       .  S
C527        C530   1.413       .  A
C527        C534   1.407       .  A
C528        N545   1.157       .  T
C529        N547   1.157       .  T
C530        C531   1.412       .  A
C530        C535   1.449       .  S
C531        C532   1.410       .  A
C531        C537   1.450       .  S
C532        C533   1.416       .  A
C533        C534   1.403       .  A
C533        C536   1.453       .  S
C534        C538   1.452       .  S
C535        N542   1.157       .  T
C536        N543   1.157       .  T
C537        N541   1.158       .  T
C538        N544   1.157       .  T
C539        N548   1.157       .  T
C540        N546   1.157       .  T
C549        C550   1.409       .  A
C549        C554   1.409       .  A
C549        C567   1.452       .  S
C550        C555   1.489   1_554  S
C550        C551   1.405       .  A
C551        C552   1.408       .  A
C551        C556   1.453   1_554  S
C552        C553   1.423       .  A
C552        C568   1.451       .  S
C553        C554   1.419       .  A
C554        C557   1.452       .  S
C555        C558   1.413       .  A
C555        C562   1.406       .  A
C556        N573   1.157       .  T
C557        N575   1.157       .  T
C558        C559   1.412       .  A
C558        C563   1.450       .  S
C559        C560   1.410       .  A
C559        C565   1.450       .  S
C560        C561   1.415       .  A
C561        C562   1.404       .  A
C561        C564   1.452       .  S
C562        C566   1.452       .  S
C563        N570   1.157       .  T
C564        N571   1.157       .  T
C565        N569   1.157       .  T
C566        N572   1.157       .  T
C567        N576   1.157       .  T
C568        N574   1.157       .  T
C577        C578   1.412   1_565  A
C577        C582   1.409       .  A
C577        C595   1.452   1_565  S
C578        C583   1.502   1_554  S
C578        C579   1.414   1_545  A
C579        C580   1.414       .  A
C579        C584   1.449       .  S
C580        C581   1.411       .  A
C580        C596   1.450       .  S
C581        C582   1.415       .  A
C582        C585   1.452       .  S
C583        C586   1.411       .  A
C583        C590   1.408       .  A
C584        N601   1.157       .  T
C585        N603   1.157       .  T
C586        C587   1.415       .  A
C586        C591   1.452   1_545  S
C587        C588   1.422       .  A
C587        C593   1.451   1_545  S
C588        C589   1.423       .  A
C589        C590   1.411       .  A
C589        C592   1.452       .  S
C590        C594   1.452   1_556  S
C591        N598   1.157       .  T
C592        N599   1.157       .  T
C593        N597   1.158       .  T
C594        N600   1.157       .  T
C595        N604   1.157       .  T
C596        N602   1.157       .  T
C605        C606   1.410       .  A
C605        C610   1.413       .  A
C605        C623   1.451       .  S
C606        C611   1.502       .  S
C606        C607   1.412       .  A
C607        C608   1.413       .  A
C607        C612   1.451       .  S
C608        C609   1.418       .  A
C608        C624   1.451       .  S
C609        C610   1.422       .  A
C610        C613   1.452       .  S
C611        C614   1.413       .  A
C611        C618   1.411       .  A
C612        N629   1.157       .  T
C613        N631   1.158       .  T
C614        C615   1.412       .  A
C614        C619   1.452       .  S
C615        C616   1.415       .  A
C615        C621   1.450       .  S
C616        C617   1.417       .  A
C617        C618   1.414       .  A
C617        C620   1.451       .  S
C618        C622   1.450       .  S
C619        N626   1.158       .  T
C620        N627   1.157       .  T
C621        N625   1.157       .  T
C622        N628   1.157       .  T
C623        N632   1.157       .  T
C624        N630   1.157       .  T
C633        C634   1.412       .  A
C633        C638   1.413       .  A
C633        C651   1.450       .  S
C634        C639   1.502       .  S
C634        C635   1.410       .  A
C635        C636   1.413       .  A
C635        C640   1.452       .  S
C636        C637   1.422       .  A
C636        C652   1.451       .  S
C637        C638   1.415       .  A
C638        C641   1.450       .  S
C639        C642   1.412       .  A
C639        C646   1.411       .  A
C640        N657   1.157       .  T
C641        N659   1.156       .  T
C642        C643   1.412       .  A
C642        C647   1.451       .  S
C643        C644   1.417   1_545  A
C643        C649   1.450       .  S
C644        C645   1.417       .  A
C645        C646   1.413   1_565  A
C645        C648   1.452       .  S
C646        C650   1.450       .  S
C647        N654   1.156       .  T
C648        N655   1.157       .  T
C649        N653   1.158       .  T
C650        N656   1.158       .  T
C651        N660   1.158       .  T
C652        N658   1.158       .  T
C661        C662   1.412       .  A
C661        C666   1.412       .  A
C661        C679   1.451       .  S
C662        C667   1.504   1_455  S
C662        C663   1.412       .  A
C663        C664   1.415       .  A
C663        C668   1.449       .  S
C664        C665   1.415       .  A
C664        C680   1.451       .  S
C665        C666   1.416       .  A
C666        C669   1.451       .  S
C667        C670   1.411       .  A
C667        C674   1.409       .  A
C668        N685   1.157       .  T
C669        N687   1.158       .  T
C670        C671   1.417       .  A
C670        C675   1.450       .  S
C671        C672   1.420       .  A
C671        C677   1.450       .  S
C672        C673   1.422       .  A
C673        C674   1.412       .  A
C673        C676   1.452       .  S
C674        C678   1.452       .  S
C675        N682   1.157       .  T
C676        N683   1.158       .  T
C677        N681   1.157       .  T
C678        N684   1.157   1_655  T
C679        N688   1.157   1_455  T
C680        N686   1.158       .  T
C689        C690   1.410       .  A
C689        C694   1.409       .  A
C689        C707   1.451   1_556  S
C690        C695   1.493   1_556  S
C690        C691   1.411       .  A
C691        C692   1.406       .  A
C691        C696   1.452       .  S
C692        C693   1.415       .  A
C692        C708   1.452       .  S
C693        C694   1.416       .  A
C694        C697   1.450       .  S
C695        C698   1.411       .  A
C695        C702   1.405       .  A
C696        N713   1.157       .  T
C697        N715   1.157       .  T
C698        C699   1.413       .  A
C698        C703   1.451       .  S
C699        C700   1.419       .  A
C699        C705   1.451       .  S
C700        C701   1.428       .  A
C701        C702   1.406       .  A
C701        C704   1.453       .  S
C702        C706   1.454   1_554  S
C703        N710   1.157       .  T
C704        N711   1.158       .  T
C705        N709   1.157       .  T
C706        N712   1.157       .  T
C707        N716   1.157       .  T
C708        N714   1.157       .  T
C717        C718   1.413       .  A
C717        C722   1.417       .  A
C717        C735   1.449       .  S
C718        C723   1.508       .  S
C718        C719   1.411       .  A
C719        C720   1.415       .  A
C719        C724   1.451       .  S
C720        C721   1.419       .  A
C720        C736   1.451       .  S
C721        C722   1.417       .  A
C722        C725   1.451       .  S
C723        C726   1.411       .  A
C723        C730   1.410       .  A
C724        N741   1.157       .  T
C725        N743   1.158       .  T
C726        C727   1.416       .  A
C726        C731   1.452       .  S
C727        C728   1.424       .  A
C727        C733   1.450       .  S
C728        C729   1.422       .  A
C729        C730   1.417       .  A
C729        C732   1.451       .  S
C730        C734   1.449       .  S
C731        N738   1.157       .  T
C732        N739   1.157       .  T
C733        N737   1.158       .  T
C734        N740   1.158       .  T
C735        N744   1.157       .  T
C736        N742   1.157       .  T
C745        C746   1.408       .  A
C745        C750   1.419   1_565  A
C745        C763   1.453       .  S
C746        C751   1.508       .  S
C746        C747   1.412       .  A
C747        C748   1.414       .  A
C747        C752   1.449       .  S
C748        C749   1.422   1_565  A
C748        C764   1.455       .  S
C749        C750   1.426       .  A
C750        C753   1.447       .  S
C751        C754   1.411       .  A
C751        C758   1.410       .  A
C752        N769   1.160       .  T
C753        N771   1.161       .  T
C754        C755   1.416       .  A
C754        C759   1.450       .  S
C755        C756   1.418       .  A
C755        C761   1.451       .  S
C756        C757   1.421       .  A
C757        C758   1.415       .  A
C757        C760   1.452       .  S
C758        C762   1.451       .  S
C759        N766   1.157       .  T
C760        N767   1.157       .  T
C761        N765   1.158       .  T
C762        N768   1.158       .  T
C763        N772   1.154       .  T
C764        N770   1.154       .  T
C773        C774   1.409       .  A
C773        C778   1.412       .  A
C773        C791   1.452       .  S
C774        C779   1.502   1_455  S
C774        C775   1.411       .  A
C775        C776   1.416       .  A
C775        C780   1.449       .  S
C776        C777   1.416       .  A
C776        C792   1.450       .  S
C777        C778   1.422       .  A
C778        C781   1.452       .  S
C779        C782   1.411       .  A
C779        C786   1.408       .  A
C780        N797   1.157   1_455  T
C781        N799   1.158       .  T
C782        C783   1.418       .  A
C782        C787   1.449       .  S
C783        C784   1.417       .  A
C783        C789   1.449       .  S
C784        C785   1.423       .  A
C785        C786   1.411       .  A
C785        C788   1.452       .  S
C786        C790   1.453       .  S
C787        N794   1.157       .  T
C788        N795   1.158       .  T
C789        N793   1.157       .  T
C790        N796   1.157       .  T
C791        N800   1.157   1_455  T
C792        N798   1.157       .  T
C801        C802   1.414       .  A
C801        C806   1.412       .  A
C801        C819   1.450       .  S
C802        C807   1.504   1_546  S
C802        C803   1.413   1_545  A
C803        C804   1.411   1_565  A
C803        C808   1.452       .  S
C804        C805   1.419       .  A
C804        C820   1.450       .  S
C805        C806   1.415       .  A
C806        C809   1.450       .  S
C807        C810   1.413       .  A
C807        C814   1.413       .  A
C808        N825   1.158       .  T
C809        N827   1.157       .  T
C810        C811   1.411       .  A
C810        C815   1.452   1_565  S
C811        C812   1.419       .  A
C811        C817   1.452       .  S
C812        C813   1.417       .  A
C813        C814   1.412       .  A
C813        C816   1.451       .  S
C814        C818   1.451   1_554  S
C815        N822   1.157       .  T
C816        N823   1.157       .  T
C817        N821   1.157       .  T
C818        N824   1.157       .  T
C819        N828   1.157   1_556  T
C820        N826   1.157       .  T
C829        C830   1.406       .  A
C829        C834   1.406       .  A
C829        C847   1.453       .  S
C830        C835   1.497   1_554  S
C830        C831   1.414       .  A
C831        C832   1.416       .  A
C831        C836   1.449       .  S
C832        C833   1.415       .  A
C832        C848   1.450       .  S
C833        C834   1.421       .  A
C834        C837   1.453       .  S
C835        C838   1.409       .  A
C835        C842   1.413       .  A
C836        N853   1.157       .  T
C837        N855   1.157       .  T
C838        C839   1.409       .  A
C838        C843   1.451   1_556  S
C839        C840   1.416       .  A
C839        C845   1.449       .  S
C840        C841   1.415       .  A
C841        C842   1.412       .  A
C841        C844   1.451       .  S
C842        C846   1.451       .  S
C843        N850   1.157       .  T
C844        N851   1.157       .  T
C845        N849   1.156       .  T
C846        N852   1.157       .  T
C847        N856   1.157   1_554  T
C848        N854   1.157       .  T
C857        C858   1.411       .  A
C857        C862   1.415       .  A
C857        C875   1.449       .  S
C858        C863   1.500       .  S
C858        C859   1.409       .  A
C859        C860   1.410       .  A
C859        C864   1.452       .  S
C860        C861   1.417       .  A
C860        C876   1.448       .  S
C861        C862   1.414       .  A
C862        C865   1.449       .  S
C863        C866   1.408       .  A
C863        C870   1.409       .  A
C864        N881   1.157       .  T
C865        N883   1.157       .  T
C866        C867   1.416   1_545  A
C866        C871   1.450       .  S
C867        C868   1.422       .  A
C867        C873   1.451       .  S
C868        C869   1.423   1_565  A
C869        C870   1.411       .  A
C869        C872   1.451       .  S
C870        C874   1.453       .  S
C871        N878   1.158       .  T
C872        N879   1.158       .  T
C873        N877   1.157       .  T
C874        N880   1.157       .  T
C875        N884   1.157       .  T
C876        N882   1.156       .  T
C885        C886   1.408       .  A
C885        C890   1.409       .  A
C885        C903   1.452       .  S
C886        C891   1.505       .  S
C886        C887   1.414       .  A
C887        C888   1.420       .  A
C887        C892   1.449       .  S
C888        C889   1.415       .  A
C888        C904   1.448       .  S
C889        C890   1.424       .  A
C890        C893   1.454       .  S
C891        C894   1.414       .  A
C891        C898   1.412       .  A
C892        N909   1.157       .  T
C893        N911   1.157       .  T
C894        C895   1.416       .  A
C894        C899   1.449       .  S
C895        C896   1.413       .  A
C895        C901   1.451       .  S
C896        C897   1.416       .  A
C897        C898   1.413       .  A
C897        C900   1.451       .  S
C898        C902   1.451       .  S
C899        N906   1.158       .  T
C900        N907   1.158       .  T
C901        N905   1.157       .  T
C902        N908   1.157       .  T
C903        N912   1.158       .  T
C904        N910   1.158       .  T
C913        C914   1.409       .  A
C913        C918   1.410       .  A
C913        C931   1.451       .  S
C914        C919   1.493       .  S
C914        C915   1.410       .  A
C915        C916   1.409       .  A
C915        C920   1.451       .  S
C916        C917   1.416       .  A
C916        C932   1.451       .  S
C917        C918   1.416       .  A
C918        C921   1.451       .  S
C919        C922   1.410       .  A
C919        C926   1.410       .  A
C920        N937   1.157       .  T
C921        N939   1.157       .  T
C922        C923   1.408       .  A
C922        C927   1.450       .  S
C923        C924   1.413       .  A
C923        C929   1.451       .  S
C924        C925   1.415       .  A
C925        C926   1.409       .  A
C925        C928   1.451       .  S
C926        C930   1.451       .  S
C927        N934   1.157       .  T
C928        N935   1.157       .  T
C929        N933   1.157       .  T
C930        N936   1.157       .  T
C931        N940   1.157       .  T
C932        N938   1.157       .  T
C941        C942   1.410       .  A
C941        C946   1.409       .  A
C941        C959   1.450       .  S
C942        C947   1.492       .  S
C942        C943   1.410       .  A
C943        C944   1.409       .  A
C943        C948   1.451       .  S
C944        C945   1.414       .  A
C944        C960   1.451       .  S
C945        C946   1.411       .  A
C946        C949   1.449       .  S
C947        C950   1.406       .  A
C947        C954   1.406       .  A
C948        N965   1.157       .  T
C949        N967   1.156       .  T
C950        C951   1.409       .  A
C950        C955   1.453       .  S
C951        C952   1.424       .  A
C951        C957   1.452       .  S
C952        C953   1.424       .  A
C953        C954   1.412       .  A
C953        C956   1.451       .  S
C954        C958   1.451       .  S
C955        N962   1.157       .  T
C956        N963   1.158       .  T
C957        N961   1.158       .  T
C958        N964   1.157       .  T
C959        N968   1.157       .  T
C960        N966   1.157       .  T
C969        C970   1.411       .  A
C969        C974   1.412       .  A
C969        C987   1.452       .  S
C970        C975   1.499       .  S
C970        C971   1.409       .  A
C971        C972   1.412       .  A
C971        C976   1.451       .  S
C972        C973   1.419       .  A
C972        C988   1.450       .  S
C973        C974   1.419       .  A
C974        C977   1.451       .  S
C975        C978   1.409       .  A
C975        C982   1.408       .  A
C976        N993   1.157       .  T
C977        N995   1.156       .  T
C978        C979   1.414       .  A
C978        C983   1.451       .  S
C979        C980   1.423       .  A
C979        C985   1.450       .  S
C980        C981   1.422       .  A
C981        C982   1.409       .  A
C981        C984   1.451       .  S
C982        C986   1.451       .  S
C983        N990   1.157       .  T
C984        N991   1.156       .  T
C985        N989   1.158       .  T
C986        N992   1.157       .  T
C987        N996   1.158       .  T
C988        N994   1.158       .  T
C997        C998   1.412       .  A
C997       C1002   1.410       .  A
C997       C1015   1.450       .  S
C998       C1003   1.498       .  S
C998        C999   1.413       .  A
C999       C1000   1.410       .  A
C999       C1004   1.451       .  S
C1000      C1001   1.414       .  A
C1000      C1016   1.452       .  S
C1001      C1002   1.413       .  A
C1002      C1005   1.451       .  S
C1003      C1006   1.412       .  A
C1003      C1010   1.411       .  A
C1004      N1021   1.157       .  T
C1005      N1023   1.157       .  T
C1006      C1007   1.412       .  A
C1006      C1011   1.451       .  S
C1007      C1008   1.416       .  A
C1007      C1013   1.451       .  S
C1008      C1009   1.417       .  A
C1009      C1010   1.411       .  A
C1009      C1012   1.451       .  S
C1010      C1014   1.452       .  S
C1011      N1018   1.157       .  T
C1012      N1019   1.157       .  T
C1013      N1017   1.157       .  T
C1014      N1020   1.157       .  T
C1015      N1024   1.157       .  T
C1016      N1022   1.158       .  T
C1025      C1026   1.410       .  A
C1025      C1030   1.414       .  A
C1025      C1043   1.450       .  S
C1026      C1031   1.497       .  S
C1026      C1027   1.409       .  A
C1027      C1028   1.410       .  A
C1027      C1032   1.452       .  S
C1028      C1029   1.420       .  A
C1028      C1044   1.452       .  S
C1029      C1030   1.415       .  A
C1030      C1033   1.449       .  S
C1031      C1034   1.410       .  A
C1031      C1038   1.409       .  A
C1032      N1049   1.157       .  T
C1033      N1051   1.157       .  T
C1034      C1035   1.412       .  A
C1034      C1039   1.451       .  S
C1035      C1036   1.419       .  A
C1035      C1041   1.451       .  S
C1036      C1037   1.416       .  A
C1037      C1038   1.411       .  A
C1037      C1040   1.451       .  S
C1038      C1042   1.450       .  S
C1039      N1046   1.157       .  T
C1040      N1047   1.157       .  T
C1041      N1045   1.158       .  T
C1042      N1048   1.157       .  T
C1043      N1052   1.157       .  T
C1044      N1050   1.157       .  T
C1053      C1054   1.407       .  A
C1053      C1058   1.414       .  A
C1053      C1071   1.452       .  S
C1054      C1059   1.504       .  S
C1054      C1055   1.409       .  A
C1055      C1056   1.417       .  A
C1055      C1060   1.451       .  S
C1056      C1057   1.425       .  A
C1056      C1072   1.450       .  S
C1057      C1058   1.427       .  A
C1058      C1061   1.452       .  S
C1059      C1062   1.412       .  A
C1059      C1066   1.412       .  A
C1060      N1077   1.157       .  T
C1061      N1079   1.158       .  T
C1062      C1063   1.413       .  A
C1062      C1067   1.451       .  S
C1063      C1064   1.415       .  A
C1063      C1069   1.451       .  S
C1064      C1065   1.414       .  A
C1065      C1066   1.415       .  A
C1065      C1068   1.451       .  S
C1066      C1070   1.450       .  S
C1067      N1074   1.157       .  T
C1068      N1075   1.157       .  T
C1069      N1073   1.157       .  T
C1070      N1076   1.157       .  T
C1071      N1080   1.157       .  T
C1072      N1078   1.158       .  T
C1081      C1082   1.410       .  A
C1081      C1086   1.413       .  A
C1081      C1099   1.450       .  S
C1082      C1087   1.494       .  S
C1082      C1083   1.409       .  A
C1083      C1084   1.408       .  A
C1083      C1088   1.453       .  S
C1084      C1085   1.419       .  A
C1084      C1100   1.453       .  S
C1085      C1086   1.416       .  A
C1086      C1089   1.450       .  S
C1087      C1090   1.409       .  A
C1087      C1094   1.409       .  A
C1088      N1105   1.157       .  T
C1089      N1107   1.157       .  T
C1090      C1091   1.410       .  A
C1090      C1095   1.452       .  S
C1091      C1092   1.419       .  A
C1091      C1097   1.452       .  S
C1092      C1093   1.417       .  A
C1093      C1094   1.412       .  A
C1093      C1096   1.451       .  S
C1094      C1098   1.450       .  S
C1095      N1102   1.157       .  T
C1096      N1103   1.157       .  T
C1097      N1101   1.157       .  T
C1098      N1104   1.157       .  T
C1099      N1108   1.157       .  T
C1100      N1106   1.157       .  T
C1109      C1110   1.412       .  A
C1109      C1114   1.418       .  A
C1109      C1127   1.450       .  S
C1110      C1115   1.504       .  S
C1110      C1111   1.411       .  A
C1111      C1112   1.408       .  A
C1111      C1116   1.453       .  S
C1112      C1113   1.420       .  A
C1112      C1128   1.451       .  S
C1113      C1114   1.420       .  A
C1114      C1117   1.450       .  S
C1115      C1118   1.413       .  A
C1115      C1122   1.413       .  A
C1116      N1133   1.158       .  T
C1117      N1135   1.157       .  T
C1118      C1119   1.417       .  A
C1118      C1123   1.450       .  S
C1119      C1120   1.419       .  A
C1119      C1125   1.451       .  S
C1120      C1121   1.417       .  A
C1121      C1122   1.409       .  A
C1121      C1124   1.451       .  S
C1122      C1126   1.453       .  S
C1123      N1130   1.158       .  T
C1124      N1131   1.157       .  T
C1125      N1129   1.157       .  T
C1126      N1132   1.157       .  T
C1127      N1136   1.157       .  T
C1128      N1134   1.157       .  T
C1137      C1138   1.409       .  A
C1137      C1142   1.408       .  A
C1137      C1155   1.451       .  S
C1138      C1143   1.489       .  S
C1138      C1139   1.408       .  A
C1139      C1140   1.407       .  A
C1139      C1144   1.451       .  S
C1140      C1141   1.415       .  A
C1140      C1156   1.451       .  S
C1141      C1142   1.417       .  A
C1142      C1145   1.451       .  S
C1143      C1146   1.409       .  A
C1143      C1150   1.409       .  A
C1144      N1161   1.157       .  T
C1145      N1163   1.158       .  T
C1146      C1147   1.407       .  A
C1146      C1151   1.452       .  S
C1147      C1148   1.413       .  A
C1147      C1153   1.450       .  S
C1148      C1149   1.414       .  A
C1149      C1150   1.409       .  A
C1149      C1152   1.451       .  S
C1150      C1154   1.450       .  S
C1151      N1158   1.157       .  T
C1152      N1159   1.157       .  T
C1153      N1157   1.157       .  T
C1154      N1160   1.157       .  T
C1155      N1164   1.157       .  T
C1156      N1162   1.157       .  T
C1165      C1166   1.414       .  A
C1165      C1170   1.420       .  A
C1165      C1183   1.448       .  S
C1166      C1171   1.507       .  S
C1166      C1167   1.409       .  A
C1167      C1168   1.410       .  A
C1167      C1172   1.453       .  S
C1168      C1169   1.422       .  A
C1168      C1184   1.453       .  S
C1169      C1170   1.415       .  A
C1170      C1173   1.449       .  S
C1171      C1174   1.413       .  A
C1171      C1178   1.412       .  A
C1172      N1189   1.157       .  T
C1173      N1191   1.157       .  T
C1174      C1175   1.416   1_565  A
C1174      C1179   1.450       .  S
C1175      C1176   1.416       .  A
C1175      C1181   1.451       .  S
C1176      C1177   1.417   1_545  A
C1177      C1178   1.414       .  A
C1177      C1180   1.451   1_565  S
C1178      C1182   1.451       .  S
C1179      N1186   1.157       .  T
C1180      N1187   1.157       .  T
C1181      N1185   1.157       .  T
C1182      N1188   1.157       .  T
C1183      N1192   1.157       .  T
C1184      N1190   1.157       .  T
C1193      C1194   1.409       .  A
C1193      C1198   1.412       .  A
C1193      C1211   1.451       .  S
C1194      C1199   1.501       .  S
C1194      C1195   1.410       .  A
C1195      C1196   1.414       .  A
C1195      C1200   1.450       .  S
C1196      C1197   1.418       .  A
C1196      C1212   1.451       .  S
C1197      C1198   1.420       .  A
C1198      C1201   1.452       .  S
C1199      C1202   1.407       .  A
C1199      C1206   1.411       .  A
C1200      N1217   1.157       .  T
C1201      N1219   1.157       .  T
C1202      C1203   1.413       .  A
C1202      C1207   1.451       .  S
C1203      C1204   1.424       .  A
C1203      C1209   1.451       .  S
C1204      C1205   1.420       .  A
C1205      C1206   1.413       .  A
C1205      C1208   1.451       .  S
C1206      C1210   1.451       .  S
C1207      N1214   1.157       .  T
C1208      N1215   1.157       .  T
C1209      N1213   1.158       .  T
C1210      N1216   1.157       .  T
C1211      N1220   1.157       .  T
C1212      N1218   1.158       .  T
C1221      C1222   1.412       .  A
C1221      C1226   1.406       .  A
C1221      C1239   1.452       .  S
C1222      C1227   1.497       .  S
C1222      C1223   1.413       .  A
C1223      C1224   1.412       .  A
C1223      C1228   1.450       .  S
C1224      C1225   1.413       .  A
C1224      C1240   1.450       .  S
C1225      C1226   1.413       .  A
C1226      C1229   1.451       .  S
C1227      C1230   1.406       .  A
C1227      C1234   1.411       .  A
C1228      N1245   1.157       .  T
C1229      N1247   1.157       .  T
C1230      C1231   1.407       .  A
C1230      C1235   1.454       .  S
C1231      C1232   1.428       .  A
C1231      C1237   1.454       .  S
C1232      C1233   1.420       .  A
C1233      C1234   1.415       .  A
C1233      C1236   1.451       .  S
C1234      C1238   1.451       .  S
C1235      N1242   1.157       .  T
C1236      N1243   1.158       .  T
C1237      N1241   1.158       .  T
C1238      N1244   1.157       .  T
C1239      N1248   1.157       .  T
C1240      N1246   1.157       .  T
C1249      C1250   1.414       .  A
C1249      C1254   1.412       .  A
C1249      C1267   1.451       .  S
C1250      C1255   1.505       .  S
C1250      C1251   1.415       .  A
C1251      C1252   1.413       .  A
C1251      C1256   1.451       .  S
C1252      C1253   1.411       .  A
C1252      C1268   1.451       .  S
C1253      C1254   1.411       .  A
C1254      C1257   1.451       .  S
C1255      C1258   1.410       .  A
C1255      C1262   1.411       .  A
C1256      N1273   1.157       .  T
C1257      N1275   1.157       .  T
C1258      C1259   1.412       .  A
C1258      C1263   1.453       .  S
C1259      C1260   1.426       .  A
C1259      C1265   1.453       .  S
C1260      C1261   1.424       .  A
C1261      C1262   1.414       .  A
C1261      C1264   1.452       .  S
C1262      C1266   1.451       .  S
C1263      N1270   1.157       .  T
C1264      N1271   1.158       .  T
C1265      N1269   1.158       .  T
C1266      N1272   1.157       .  T
C1267      N1276   1.157       .  T
C1268      N1274   1.157       .  T
C1277      C1278   1.407       .  A
C1277      C1282   1.406       .  A
C1277      C1295   1.453       .  S
C1278      C1283   1.489       .  S
C1278      C1279   1.409       .  A
C1279      C1280   1.409       .  A
C1279      C1284   1.451       .  S
C1280      C1281   1.419       .  A
C1280      C1296   1.451       .  S
C1281      C1282   1.421       .  A
C1282      C1285   1.451       .  S
C1283      C1286   1.413       .  A
C1283      C1290   1.406       .  A
C1284      N1301   1.157       .  T
C1285      N1303   1.157       .  T
C1286      C1287   1.412       .  A
C1286      C1291   1.450       .  S
C1287      C1288   1.410       .  A
C1287      C1293   1.450       .  S
C1288      C1289   1.415       .  A
C1289      C1290   1.402       .  A
C1289      C1292   1.451       .  S
C1290      C1294   1.453       .  S
C1291      N1298   1.157       .  T
C1292      N1299   1.157       .  T
C1293      N1297   1.157       .  T
C1294      N1300   1.157       .  T
C1295      N1304   1.157       .  T
C1296      N1302   1.157       .  T
C1305      C1306   1.406   1_565  A
C1305      C1310   1.411   1_565  A
C1305      C1323   1.452       .  S
C1306      C1311   1.496   1_545  S
C1306      C1307   1.406       .  A
C1307      C1308   1.412       .  A
C1307      C1312   1.452       .  S
C1308      C1309   1.428       .  A
C1308      C1324   1.452       .  S
C1309      C1310   1.428       .  A
C1310      C1313   1.453   1_545  S
C1311      C1314   1.411       .  A
C1311      C1318   1.410       .  A
C1312      N1329   1.157       .  T
C1313      N1331   1.158       .  T
C1314      C1315   1.413       .  A
C1314      C1319   1.450       .  S
C1315      C1316   1.415       .  A
C1315      C1321   1.450       .  S
C1316      C1317   1.416       .  A
C1317      C1318   1.408       .  A
C1317      C1320   1.452       .  S
C1318      C1322   1.451   1_565  S
C1319      N1326   1.157       .  T
C1320      N1327   1.157       .  T
C1321      N1325   1.157       .  T
C1322      N1328   1.157       .  T
C1323      N1332   1.157       .  T
C1324      N1330   1.158       .  T
C1333      C1334   1.413       .  A
C1333      C1338   1.417       .  A
C1333      C1351   1.449       .  S
C1334      C1339   1.508       .  S
C1334      C1335   1.411       .  A
C1335      C1336   1.415       .  A
C1335      C1340   1.451       .  S
C1336      C1337   1.419       .  A
C1336      C1352   1.451       .  S
C1337      C1338   1.414       .  A
C1338      C1341   1.450       .  S
C1339      C1342   1.410       .  A
C1339      C1346   1.410       .  A
C1340      N1357   1.157       .  T
C1341      N1359   1.157       .  T
C1342      C1343   1.416       .  A
C1342      C1347   1.451       .  S
C1343      C1344   1.425       .  A
C1343      C1349   1.452       .  S
C1344      C1345   1.422       .  A
C1345      C1346   1.417       .  A
C1345      C1348   1.450       .  S
C1346      C1350   1.450       .  S
C1347      N1354   1.157       .  T
C1348      N1355   1.157       .  T
C1349      N1353   1.158       .  T
C1350      N1356   1.157       .  T
C1351      N1360   1.157       .  T
C1352      N1358   1.157       .  T
C1361      C1362   1.410       .  A
C1361      C1366   1.414       .  A
C1361      C1379   1.450       .  S
C1362      C1367   1.502       .  S
C1362      C1363   1.407       .  A
C1363      C1364   1.413       .  A
C1363      C1368   1.452       .  S
C1364      C1365   1.423       .  A
C1364      C1380   1.448       .  S
C1365      C1366   1.418       .  A
C1366      C1369   1.451       .  S
C1367      C1370   1.408       .  A
C1367      C1374   1.408       .  A
C1368      N1385   1.157       .  T
C1369      N1387   1.157       .  T
C1370      C1371   1.416   1_545  A
C1370      C1375   1.451       .  S
C1371      C1372   1.425       .  A
C1371      C1377   1.451       .  S
C1372      C1373   1.424   1_565  A
C1373      C1374   1.412       .  A
C1373      C1376   1.452       .  S
C1374      C1378   1.452       .  S
C1375      N1382   1.157       .  T
C1376      N1383   1.157       .  T
C1377      N1381   1.158       .  T
C1378      N1384   1.157       .  T
C1379      N1388   1.157       .  T
C1380      N1386   1.156       .  T
C1389      C1390   1.406       .  A
C1389      C1394   1.405       .  A
C1389      C1407   1.452       .  S
C1390      C1395   1.487       .  S
C1390      C1391   1.407       .  A
C1391      C1392   1.410       .  A
C1391      C1396   1.451       .  S
C1392      C1393   1.421       .  A
C1392      C1408   1.451       .  S
C1393      C1394   1.420       .  A
C1394      C1397   1.453       .  S
C1395      C1398   1.410       .  A
C1395      C1402   1.408       .  A
C1396      N1413   1.157       .  T
C1397      N1415   1.157       .  T
C1398      C1399   1.409       .  A
C1398      C1403   1.451       .  S
C1399      C1400   1.412       .  A
C1399      C1405   1.451       .  S
C1400      C1401   1.413       .  A
C1401      C1402   1.405       .  A
C1401      C1404   1.451       .  S
C1402      C1406   1.451       .  S
C1403      N1410   1.157       .  T
C1404      N1411   1.157       .  T
C1405      N1409   1.157       .  T
C1406      N1412   1.157       .  T
C1407      N1416   1.157       .  T
C1408      N1414   1.158       .  T
C1417      C1418   1.410       .  A
C1417      C1422   1.409       .  A
C1417      C1435   1.452       .  S
C1418      C1423   1.498   1_655  S
C1418      C1419   1.410       .  A
C1419      C1420   1.414       .  A
C1419      C1424   1.450       .  S
C1420      C1421   1.417       .  A
C1420      C1436   1.450       .  S
C1421      C1422   1.418       .  A
C1422      C1425   1.452       .  S
C1423      C1426   1.408       .  A
C1423      C1430   1.409       .  A
C1424      N1441   1.157       .  T
C1425      N1443   1.157       .  T
C1426      C1427   1.411       .  A
C1426      C1431   1.452       .  S
C1427      C1428   1.422       .  A
C1427      C1433   1.452       .  S
C1428      C1429   1.420       .  A
C1429      C1430   1.412       .  A
C1429      C1432   1.451       .  S
C1430      C1434   1.451       .  S
C1431      N1438   1.157   1_455  T
C1432      N1439   1.157       .  T
C1433      N1437   1.158       .  T
C1434      N1440   1.157       .  T
C1435      N1444   1.157   1_655  T
C1436      N1442   1.157       .  T
C1445      C1446   1.404       .  A
C1445      C1450   1.403       .  A
C1445      C1463   1.455       .  S
C1446      C1451   1.485       .  S
C1446      C1447   1.408       .  A
C1447      C1448   1.409       .  A
C1447      C1452   1.451       .  S
C1448      C1449   1.420       .  A
C1448      C1464   1.451       .  S
C1449      C1450   1.428       .  A
C1450      C1453   1.455       .  S
C1451      C1454   1.410       .  A
C1451      C1458   1.411       .  A
C1452      N1469   1.157       .  T
C1453      N1471   1.158       .  T
C1454      C1455   1.403       .  A
C1454      C1459   1.452       .  S
C1455      C1456   1.412       .  A
C1455      C1461   1.451       .  S
C1456      C1457   1.410       .  A
C1457      C1458   1.406       .  A
C1457      C1460   1.448       .  S
C1458      C1462   1.451       .  S
C1459      N1466   1.157       .  T
C1460      N1467   1.156       .  T
C1461      N1465   1.157       .  T
C1462      N1468   1.157       .  T
C1463      N1472   1.157       .  T
C1464      N1470   1.157       .  T
C1473      C1474   1.411       .  A
C1473      C1478   1.415       .  A
C1473      C1491   1.449       .  S
C1474      C1479   1.501       .  S
C1474      C1475   1.409       .  A
C1475      C1476   1.412       .  A
C1475      C1480   1.452       .  S
C1476      C1477   1.419       .  A
C1476      C1492   1.449       .  S
C1477      C1478   1.417       .  A
C1478      C1481   1.450       .  S
C1479      C1482   1.408       .  A
C1479      C1486   1.409       .  A
C1480      N1497   1.157       .  T
C1481      N1499   1.157       .  T
C1482      C1483   1.415       .  A
C1482      C1487   1.450       .  S
C1483      C1484   1.423       .  A
C1483      C1489   1.452       .  S
C1484      C1485   1.424       .  A
C1485      C1486   1.413       .  A
C1485      C1488   1.451       .  S
C1486      C1490   1.453       .  S
C1487      N1494   1.158       .  T
C1488      N1495   1.158       .  T
C1489      N1493   1.157       .  T
C1490      N1496   1.157       .  T
C1491      N1500   1.157       .  T
C1492      N1498   1.157       .  T
C1501      C1502   1.415       .  A
C1501      C1506   1.417       .  A
C1501      C1519   1.450       .  S
C1502      C1507   1.506       .  S
C1502      C1503   1.411       .  A
C1503      C1504   1.414       .  A
C1503      C1508   1.451       .  S
C1504      C1505   1.416   1_565  A
C1504      C1520   1.451   1_565  S
C1505      C1506   1.414   1_545  A
C1506      C1509   1.450   1_565  S
C1507      C1510   1.408       .  A
C1507      C1514   1.414       .  A
C1508      N1525   1.157       .  T
C1509      N1527   1.157       .  T
C1510      C1511   1.410       .  A
C1510      C1515   1.453       .  S
C1511      C1512   1.422       .  A
C1511      C1517   1.453       .  S
C1512      C1513   1.415       .  A
C1513      C1514   1.421       .  A
C1513      C1516   1.447       .  S
C1514      C1518   1.449       .  S
C1515      N1522   1.157       .  T
C1516      N1523   1.157       .  T
C1517      N1521   1.157       .  T
C1518      N1524   1.157       .  T
C1519      N1528   1.157       .  T
C1520      N1526   1.157       .  T
C1529      C1530   1.411       .  A
C1529      C1534   1.410       .  A
C1529      C1547   1.451       .  S
C1530      C1535   1.497       .  S
C1530      C1531   1.411       .  A
C1531      C1532   1.411       .  A
C1531      C1536   1.451       .  S
C1532      C1533   1.415       .  A
C1532      C1548   1.451       .  S
C1533      C1534   1.416       .  A
C1534      C1537   1.451       .  S
C1535      C1538   1.412       .  A
C1535      C1542   1.410       .  A
C1536      N1553   1.157       .  T
C1537      N1555   1.157       .  T
C1538      C1539   1.411       .  A
C1538      C1543   1.451       .  S
C1539      C1540   1.414       .  A
C1539      C1545   1.451       .  S
C1540      C1541   1.414       .  A
C1541      C1542   1.410       .  A
C1541      C1544   1.450       .  S
C1542      C1546   1.451       .  S
C1543      N1550   1.157       .  T
C1544      N1551   1.157       .  T
C1545      N1549   1.157       .  T
C1546      N1552   1.157       .  T
C1547      N1556   1.157       .  T
C1548      N1554   1.157       .  T
C1557      C1558   1.411       .  A
C1557      C1562   1.411       .  A
C1557      C1575   1.451       .  S
C1558      C1563   1.500   1_655  S
C1558      C1559   1.410       .  A
C1559      C1560   1.412       .  A
C1559      C1564   1.450       .  S
C1560      C1561   1.418       .  A
C1560      C1576   1.451       .  S
C1561      C1562   1.419       .  A
C1562      C1565   1.452       .  S
C1563      C1566   1.410       .  A
C1563      C1570   1.409       .  A
C1564      N1581   1.157       .  T
C1565      N1583   1.158       .  T
C1566      C1567   1.414       .  A
C1566      C1571   1.450       .  S
C1567      C1568   1.418       .  A
C1567      C1573   1.450       .  S
C1568      C1569   1.422       .  A
C1569      C1570   1.411       .  A
C1569      C1572   1.452       .  S
C1570      C1574   1.453       .  S
C1571      N1578   1.157       .  T
C1572      N1579   1.158       .  T
C1573      N1577   1.157       .  T
C1574      N1580   1.157   1_455  T
C1575      N1584   1.157   1_655  T
C1576      N1582   1.157       .  T
C1585      C1586   1.412       .  A
C1585      C1590   1.410       .  A
C1585      C1603   1.452   1_565  S
C1586      C1591   1.501       .  S
C1586      C1587   1.411       .  A
C1587      C1588   1.414       .  A
C1587      C1592   1.449       .  S
C1588      C1589   1.416       .  A
C1588      C1604   1.451       .  S
C1589      C1590   1.416       .  A
C1590      C1593   1.452       .  S
C1591      C1594   1.409       .  A
C1591      C1598   1.408   1_565  A
C1592      N1609   1.157       .  T
C1593      N1611   1.157       .  T
C1594      C1595   1.411       .  A
C1594      C1599   1.451       .  S
C1595      C1596   1.423   1_565  A
C1595      C1601   1.452       .  S
C1596      C1597   1.425       .  A
C1597      C1598   1.414       .  A
C1597      C1600   1.452       .  S
C1598      C1602   1.451       .  S
C1599      N1606   1.157       .  T
C1600      N1607   1.158       .  T
C1601      N1605   1.157       .  T
C1602      N1608   1.157       .  T
C1603      N1612   1.157       .  T
C1604      N1610   1.157       .  T
C1613      C1614   1.409       .  A
C1613      C1618   1.404       .  A
C1613      C1631   1.452       .  S
C1614      C1619   1.494       .  S
C1614      C1615   1.415       .  A
C1615      C1616   1.413       .  A
C1615      C1620   1.449       .  S
C1616      C1617   1.409       .  A
C1616      C1632   1.450       .  S
C1617      C1618   1.416       .  A
C1618      C1621   1.453       .  S
C1619      C1622   1.410       .  A
C1619      C1626   1.410       .  A
C1620      N1637   1.157       .  T
C1621      N1639   1.157       .  T
C1622      C1623   1.407       .  A
C1622      C1627   1.452       .  S
C1623      C1624   1.415       .  A
C1623      C1629   1.449       .  S
C1624      C1625   1.418       .  A
C1625      C1626   1.412       .  A
C1625      C1628   1.450       .  S
C1626      C1630   1.451       .  S
C1627      N1634   1.157       .  T
C1628      N1635   1.157       .  T
C1629      N1633   1.156       .  T
C1630      N1636   1.157       .  T
C1631      N1640   1.157       .  T
C1632      N1638   1.157       .  T
C1641      C1642   1.410       .  A
C1641      C1646   1.414       .  A
C1641      C1659   1.450       .  S
C1642      C1647   1.503       .  S
C1642      C1643   1.409       .  A
C1643      C1644   1.414       .  A
C1643      C1648   1.452       .  S
C1644      C1645   1.424       .  A
C1644      C1660   1.451       .  S
C1645      C1646   1.419       .  A
C1646      C1649   1.451       .  S
C1647      C1650   1.410       .  A
C1647      C1654   1.410       .  A
C1648      N1665   1.157       .  T
C1649      N1667   1.157       .  T
C1650      C1651   1.412       .  A
C1650      C1655   1.451       .  S
C1651      C1652   1.424   1_545  A
C1651      C1657   1.453       .  S
C1652      C1653   1.421       .  A
C1653      C1654   1.415   1_565  A
C1653      C1656   1.450       .  S
C1654      C1658   1.450       .  S
C1655      N1662   1.157       .  T
C1656      N1663   1.158       .  T
C1657      N1661   1.158       .  T
C1658      N1664   1.157       .  T
C1659      N1668   1.157       .  T
C1660      N1666   1.158       .  T
C1669      C1670   1.410       .  A
C1669      C1674   1.412       .  A
C1669      C1687   1.450       .  S
C1670      C1675   1.492       .  S
C1670      C1671   1.407       .  A
C1671      C1672   1.406       .  A
C1671      C1676   1.452       .  S
C1672      C1673   1.419       .  A
C1672      C1688   1.453       .  S
C1673      C1674   1.415       .  A
C1674      C1677   1.451       .  S
C1675      C1678   1.406       .  A
C1675      C1682   1.409       .  A
C1676      N1693   1.158       .  T
C1677      N1695   1.158       .  T
C1678      C1679   1.412       .  A
C1678      C1683   1.452       .  S
C1679      C1680   1.423       .  A
C1679      C1685   1.449       .  S
C1680      C1681   1.421       .  A
C1681      C1682   1.408       .  A
C1681      C1684   1.455       .  S
C1682      C1686   1.451       .  S
C1683      N1690   1.156       .  T
C1684      N1691   1.156       .  T
C1685      N1689   1.159       .  T
C1686      N1692   1.159       .  T
C1687      N1696   1.157       .  T
C1688      N1694   1.157       .  T
