geometry optimzed in LAMMPS
_audit_creation_date              2020-12-01 
_audit_creation_method            'lammps2cif' 
_symmetry_space_group_name_H-M    'P1' 
_symmetry_Int_Tables_number       1 
_symmetry_cell_setting            triclinic 
loop_ 
_symmetry_equiv_pos_as_xyz 
  x,y,z 
_cell_length_a                    39.96546211 
_cell_length_b                    43.20391330883028 
_cell_length_c                    35.79495178369127 
_cell_angle_alpha                 89.51102673387904 
_cell_angle_beta                  89.97086644419524 
_cell_angle_gamma                 90.28903787442124 
loop_ 
_atom_site_label 
_atom_site_type_symbol 
_atom_site_fract_x 
_atom_site_fract_y 
_atom_site_fract_z 
_atom_site_charge 
Fe1        Fe  0.03849788  0.07138627  0.89357316     1.65800
Fe2        Fe  0.10444373  0.11370883  0.87118301     1.73200
Fe3        Fe  0.06394769  0.12567530  0.95141627     1.54400
O4          O  0.01708877  0.13949619  0.93662139    -0.81100
O5          O  0.13795189  0.12532502  0.91598549    -0.79400
O6          O  0.49566911  0.09358256  0.92473537    -0.83600
O7          O  0.05637989  0.04993448  0.93909576    -0.78400
O8          O  0.08503461  0.16731820  0.92789972    -0.80200
O9          O  0.12184538  0.06950668  0.87665481    -0.83000
C10         C  0.04227038  0.05733901  0.96875296     0.97800
C11         C  0.49165380  0.12067027  0.93818024     1.05200
O12         O  0.06846934  0.10451495  0.90464245    -1.11900
O13         O  0.07357688  0.10380792  0.82326971    -0.74400
O14         O  0.02288584  0.09313366  0.84665069    -0.77900
O15         O  0.04250086  0.08568059  0.97928167    -0.78600
C16         C  0.04173298  0.09985675  0.81926895     0.96700
O17         O  0.07417470  0.04557709  0.86455555    -0.76500
O18         O  0.08828373  0.15802536  0.86715098    -0.81700
C19         C  0.13651999  0.12085033  0.95156700     0.99300
C20         C  0.09160369  0.17629554  0.89425418     1.05200
O21         O  0.10998473  0.11180314  0.96754760    -0.77300
C22         C  0.10530761  0.04483916  0.87217473     1.03500
Fe23       Fe  0.46990573  0.44047926  0.10560435     1.65800
Fe24       Fe  0.40672835  0.39619328  0.13083751     1.73200
Fe25       Fe  0.44005563  0.38994555  0.04600352     1.54400
O26         O  0.45923600  0.43135714  0.01983336    -0.81100
O27         O  0.42490356  0.35260879  0.12940647    -0.79400
O28         O  0.44710519  0.46356903  0.06429717    -0.83600
O29         O  0.01256939  0.41845034  0.07061495    -0.78400
O30         O  0.39326021  0.40570481  0.03717770    -0.80200
O31         O  0.44085205  0.40483233  0.17613788    -0.83000
C32         C  0.01639058  0.39238881  0.05421192     0.97800
C33         C  0.45935902  0.45878277  0.03303707     1.05200
O34         O  0.43998313  0.40756197  0.09504883    -1.11900
O35         O  0.38785529  0.44004662  0.13066521    -0.74400
O36         O  0.43568625  0.46391629  0.13949125    -0.77900
O37         O  0.48771825  0.37511027  0.05317113    -0.78600
C38         C  0.40413361  0.46497882  0.13401708     0.96700
O39         O  0.48988230  0.41697167  0.14944734    -0.76500
O40         O  0.36992391  0.38590709  0.08841328    -0.81700
C41         C  0.41942451  0.33561243  0.10157428     0.99300
C42         C  0.36818809  0.39448384  0.05389602     1.05200
O43         O  0.42140740  0.34679195  0.06811543    -0.77300
C44         C  0.47289054  0.40871953  0.17773400     1.03500
Fe45       Fe  0.22394781  0.32184455  0.89147662     1.65800
Fe46       Fe  0.15995707  0.36576623  0.86942793     1.73200
Fe47       Fe  0.19768945  0.37333945  0.95172108     1.54400
O48         O  0.21718207  0.33168048  0.97756531    -0.81100
O49         O  0.17816907  0.40970420  0.86896491    -0.79400
O50         O  0.20223103  0.29928890  0.93421770    -0.83600
O51         O  0.26358559  0.34088770  0.92537157    -0.78400
O52         O  0.15079888  0.35922933  0.96469637    -0.80200
O53         O  0.19215821  0.35711795  0.82235454    -0.83000
C54         C  0.26788239  0.36742547  0.94080932     0.97800
C55         C  0.21541256  0.30394004  0.96506682     1.05200
O56         O  0.19462435  0.35482209  0.90336061    -1.11900
O57         O  0.14080697  0.32145243  0.87208913    -0.74400
O58         O  0.18819515  0.29797036  0.85960796    -0.77900
O59         O  0.24491468  0.38743004  0.93951736    -0.78600
C60         C  0.15703077  0.29670225  0.86742323     0.96700
O61         O  0.24231421  0.34543809  0.84632142    -0.76500
O62         O  0.12551268  0.37690109  0.91356035    -0.81700
C63         C  0.17308356  0.42667612  0.89693637     0.99300
C64         C  0.12555667  0.37096388  0.94887999     1.05200
O65         O  0.17819659  0.41624223  0.93027507    -0.77300
C66         C  0.22418690  0.35401835  0.81909673     1.03500
Fe67       Fe  0.28818887  0.18932476  0.10409142     1.65800
Fe68       Fe  0.35325449  0.14610843  0.12670749     1.73200
Fe69       Fe  0.31142973  0.13362580  0.04742046     1.54400
O70         O  0.26500444  0.12078165  0.06500354    -0.81100
O71         O  0.38595009  0.13433415  0.08171930    -0.79400
O72         O  0.24750415  0.16834263  0.07451507    -0.83600
O73         O  0.30612201  0.20963194  0.05760315    -0.78400
O74         O  0.33182269  0.09213891  0.07055286    -0.80200
O75         O  0.37177368  0.19010019  0.12083213    -0.83000
C76         C  0.29096867  0.20186517  0.02866965     0.97800
C77         C  0.24294519  0.14131802  0.06076822     1.05200
O78         O  0.31732087  0.15555516  0.09349258    -1.11900
O79         O  0.32272963  0.15624908  0.17466731    -0.74400
O80         O  0.27236409  0.16878972  0.15181495    -0.77900
O81         O  0.29036077  0.17332543  0.01902798    -0.78600
C82         C  0.29109309  0.16112775  0.17882775     0.96700
O83         O  0.32480331  0.21513711  0.13201650    -0.76500
O84         O  0.33677834  0.10174658  0.13121962    -0.81700
C85         C  0.38428877  0.13819494  0.04609670     0.99300
C86         C  0.33903184  0.08346663  0.10397229     1.05200
O87         O  0.35759536  0.14634447  0.02981651    -0.77300
C88         C  0.35605391  0.21508785  0.12495322     1.03500
Fe89       Fe  0.47974637  0.07837500  0.60974378     1.65800
Fe90       Fe  0.40757131  0.11322861  0.62440783     1.73200
Fe91       Fe  0.45062068  0.12713089  0.54627694     1.54400
O92         O  0.99377958  0.14621829  0.56146066    -0.81100
O93         O  0.37553196  0.12096268  0.57725121    -0.79400
O94         O  0.01806613  0.10257768  0.57821478    -0.83600
O95         O  0.47051105  0.05196123  0.56567914    -0.78400
O96         O  0.42468816  0.16726353  0.56619539    -0.80200
O97         O  0.39529039  0.06759992  0.62131613    -0.83000
C98         C  0.47966811  0.06022676  0.53366757     0.97800
C99         C  0.01935666  0.12925673  0.56230930     1.05200
O100        O  0.44590051  0.10642495  0.59344382    -1.11900
O101        O  0.43590433  0.10651703  0.67452086    -0.74400
O102        O  0.48870524  0.10490140  0.65470302    -0.77900
O103        O  0.47632370  0.08830947  0.52198188    -0.78600
C104        C  0.46758362  0.10755068  0.68064625     0.96700
O105        O  0.44488065  0.04951815  0.63809417    -0.76500
O106        O  0.41922476  0.15891525  0.62697611    -0.81700
C107        C  0.37900233  0.11578954  0.54212990     0.99300
C108        C  0.41592599  0.17650823  0.59890048     1.05200
O109        O  0.40694806  0.10858702  0.52830556    -0.77300
C110        C  0.41402194  0.04514252  0.62988086     1.03500
Fe111      Fe  0.03555686  0.43354994  0.38736275     1.65800
Fe112      Fe  0.10781421  0.39858725  0.37337794     1.73200
Fe113      Fe  0.06391101  0.38572423  0.45135432     1.54400
O114        O  0.03812004  0.42488145  0.47478526    -0.81100
O115        O  0.09716269  0.35264986  0.37133590    -0.79400
O116        O  0.04354546  0.46100234  0.43063167    -0.83600
O117        O  0.49874839  0.40993621  0.41784472    -0.78400
O118        O  0.10722723  0.40460314  0.46956595    -0.80200
O119        O  0.07939698  0.40514892  0.32215820    -0.83000
C120        C  0.49721366  0.38361408  0.43439975     0.97800
C121        C  0.03461123  0.45286895  0.46278740     1.05200
O122        O  0.06941676  0.40594846  0.40426664    -1.11900
O123        O  0.12007100  0.44405902  0.37665528    -0.74400
O124        O  0.07100096  0.46268286  0.35940293    -0.77900
O125        O  0.02044239  0.36637080  0.43368656    -0.78600
C126        C  0.10179540  0.46686487  0.36847504     0.96700
O127        O  0.02764689  0.40509984  0.34404711    -0.76500
O128        O  0.13926276  0.39148569  0.42143903    -0.81700
C129        C  0.09725872  0.33512408  0.39987607     0.99300
C130        C  0.13541683  0.39749719  0.45640263     1.05200
O131        O  0.08884120  0.34516982  0.43229034    -0.77300
C132        C  0.04746294  0.40455462  0.31679042     1.03500
Fe133      Fe  0.28692882  0.32943157  0.60592169     1.65800
Fe134      Fe  0.35840071  0.36523725  0.62115932     1.73200
Fe135      Fe  0.31445878  0.37948079  0.54337830     1.54400
O136        O  0.28900597  0.34011881  0.51897294    -0.81100
O137        O  0.34810214  0.41107041  0.62411259    -0.79400
O138        O  0.29823553  0.30398899  0.56188158    -0.83600
O139        O  0.24795113  0.35249338  0.57639272    -0.78400
O140        O  0.35769510  0.36205318  0.52421821    -0.80200
O141        O  0.32954976  0.35802530  0.67202919    -0.83000
C142        C  0.24587644  0.37931373  0.56116312     0.97800
C143        C  0.28747147  0.31180736  0.53046100     1.05200
O144        O  0.32001551  0.35863543  0.59032928    -1.11900
O145        O  0.37067927  0.31980301  0.61626584    -0.74400
O146        O  0.32174644  0.30079606  0.63370587    -0.77900
O147        O  0.27063611  0.39744626  0.56178083    -0.78600
C148        C  0.35193221  0.29685661  0.62295075     0.96700
O149        O  0.27732836  0.35572262  0.65081570    -0.76500
O150        O  0.38968002  0.37293210  0.57338458    -0.81700
C151        C  0.34922749  0.42877047  0.59577606     0.99300
C152        C  0.38591220  0.36816209  0.53815823     1.05200
O153        O  0.34005302  0.41986463  0.56311900    -0.77300
C154        C  0.29759807  0.35753279  0.67771071     1.03500
Fe155      Fe  0.22983288  0.18538285  0.39045371     1.65800
Fe156      Fe  0.15787690  0.14870501  0.37648734     1.73200
Fe157      Fe  0.20262274  0.13506898  0.45359630     1.54400
O158        O  0.24573992  0.11662413  0.43385557    -0.81100
O159        O  0.12731282  0.14196497  0.42495758    -0.79400
O160        O  0.26919455  0.16110425  0.41846662    -0.83600
O161        O  0.22074041  0.21017343  0.43536817    -0.78400
O162        O  0.17569859  0.09477057  0.43499041    -0.80200
O163        O  0.14491964  0.19372596  0.37989107    -0.83000
C164        C  0.23213172  0.20192356  0.46631842     0.97800
C165        C  0.27083274  0.13439385  0.43430891     1.05200
O166        O  0.19673845  0.15600625  0.40655136    -1.11900
O167        O  0.18579756  0.15524511  0.32538391    -0.74400
O168        O  0.23882854  0.16089933  0.34380712    -0.77900
O169        O  0.22969389  0.17367483  0.47772807    -0.78600
C170        C  0.21748176  0.15626982  0.31851601     0.96700
O171        O  0.19392372  0.21489849  0.36517564    -0.76500
O172        O  0.16814749  0.10285150  0.37401081    -0.81700
C173        C  0.13143498  0.14738294  0.45998571     0.99300
C174        C  0.16626094  0.08552513  0.40255992     1.05200
O175        O  0.15987707  0.15344748  0.47349982    -0.77300
C176        C  0.16286260  0.21719181  0.37364867     1.03500
C177        C  0.24990824  0.22698358  0.48616090    -0.04700
C178        C  0.23634386  0.23905863  0.51903246    -0.01900
C179        C  0.24586238  0.26886958  0.53080231     0.03100
C180        C  0.27028597  0.28642845  0.51067503    -0.04700
C181        C  0.28406203  0.27432295  0.47797290    -0.01800
C182        C  0.27406830  0.24473746  0.46576451     0.03100
C183        C  0.21173979  0.22126675  0.54006015     0.37800
C184        C  0.30872982  0.29221725  0.45716003     0.37800
C185        C  0.28824732  0.23294274  0.43141292     0.36200
C186        C  0.23020491  0.28150301  0.56388620     0.36200
N187        N  0.29956371  0.22414559  0.40373100    -0.38600
N188        N  0.21733045  0.29109327  0.59029330    -0.38600
N189        N  0.32820048  0.30665157  0.44047362    -0.38100
N190        N  0.19210658  0.20710064  0.55683938    -0.38100
C191        C  0.41443248  0.37072678  0.51126453    -0.04700
C192        C  0.40957193  0.38506748  0.47575108    -0.01900
C193        C  0.43564392  0.38623411  0.44919364     0.03100
C194        C  0.46781118  0.37554349  0.45861621    -0.04700
C195        C  0.47257832  0.36078303  0.49401863    -0.01800
C196        C  0.44592178  0.35807883  0.51981922     0.03100
C197        C  0.37834373  0.40047537  0.46688765     0.37800
C198        C  0.50505704  0.34894473  0.50498914     0.37800
C199        C  0.45101633  0.34232630  0.55533835     0.36200
C200        C  0.42899886  0.39766563  0.41167110     0.36200
N201        N  0.45500156  0.32983511  0.58370845    -0.38600
N202        N  0.42362336  0.40646190  0.38164142    -0.38600
N203        N  0.03145468  0.33816251  0.51100463    -0.38100
N204        N  0.35372769  0.41311274  0.45954420    -0.38100
C205        C  0.16352060  0.39457835  0.48394050    -0.04700
C206        C  0.19561375  0.40638134  0.47579635    -0.01900
C207        C  0.22203277  0.40280146  0.50172090     0.03100
C208        C  0.21675462  0.38720783  0.53651695    -0.04700
C209        C  0.18424843  0.37669160  0.54538799    -0.01800
C210        C  0.15775155  0.38077462  0.51970570     0.03100
C211        C  0.20130169  0.42353150  0.44136660     0.37800
C212        C  0.17778721  0.36186314  0.58125732     0.37800
C213        C  0.12460376  0.37006135  0.53043383     0.36200
C214        C  0.25491039  0.41447501  0.49143575     0.36200
N215        N  0.09834403  0.36136851  0.53938254    -0.38600
N216        N  0.28099910  0.42401657  0.48312267    -0.38600
N217        N  0.17252687  0.34998147  0.60977562    -0.38100
N218        N  0.20617459  0.43751295  0.41419887    -0.38100
C219        C  0.11703113  0.00012529  0.37039193    -0.04700
C220        C  0.09854097  0.02456100  0.38634171    -0.01900
C221        C  0.11508531  0.05133833  0.39981928     0.03100
C222        C  0.15028726  0.05463925  0.39672587    -0.04700
C223        C  0.16854853  0.03104904  0.37921612    -0.01800
C224        C  0.15210567  0.00438086  0.36545946     0.03100
C225        C  0.06232990  0.02272721  0.38858825     0.37800
C226        C  0.20457832  0.03412334  0.37577807     0.37800
C227        C  0.17239201  0.47949206  0.34977164     0.36200
C228        C  0.09528783  0.07545702  0.41678153     0.36200
N229        N  0.18832009  0.46122424  0.33448001    -0.38600
N230        N  0.07811896  0.09375003  0.43020117    -0.38600
N231        N  0.23336911  0.03641748  0.37356105    -0.38100
N232        N  0.03340637  0.02185028  0.39003991    -0.38100
C233        C  0.14659897  0.24763910  0.37952851    -0.04700
C234        C  0.14506326  0.25967755  0.41607527    -0.01900
C235        C  0.12954540  0.28826508  0.42294831     0.03100
C236        C  0.11053987  0.30297803  0.39469885    -0.04700
C237        C  0.10727165  0.28786854  0.35969271    -0.01800
C238        C  0.12618805  0.26104023  0.35175489     0.03100
C239        C  0.15512427  0.24094064  0.44782900     0.37800
C240        C  0.08283264  0.29862042  0.33266166     0.37800
C241        C  0.12281502  0.24593512  0.31592213     0.36200
C242        C  0.13407974  0.30216165  0.45926217     0.36200
N243        N  0.11988891  0.23367404  0.28748397    -0.38600
N244        N  0.13863502  0.31226348  0.48862151    -0.38600
N245        N  0.06286876  0.30677472  0.31139176    -0.38100
N246        N  0.16093013  0.22620680  0.47412136    -0.38100
C247        C  0.39934628  0.01328086  0.62721759    -0.04700
C248        C  0.36520654  0.00782181  0.63613280    -0.01900
C249        C  0.34677122  0.48249627  0.62128400     0.03100
C250        C  0.36466516  0.45965176  0.60190433    -0.04700
C251        C  0.39960438  0.46338223  0.59708710    -0.01800
C252        C  0.41641798  0.48955252  0.61133963     0.03100
C253        C  0.34712406  0.02990890  0.65867658     0.37800
C254        C  0.41896365  0.44047578  0.57737741     0.37800
C255        C  0.45264062  0.49115352  0.60879439     0.36200
C256        C  0.31109561  0.47848910  0.62731761     0.36200
N257        N  0.48156232  0.49174787  0.60718174    -0.38600
N258        N  0.28261560  0.47526202  0.63187353    -0.38600
N259        N  0.43613526  0.42351204  0.56166364    -0.38100
N260        N  0.33274456  0.04736149  0.67695864    -0.38100
C261        C  0.36615969  0.26537670  0.61644186    -0.04700
C262        C  0.38427485  0.25960947  0.58313504    -0.01900
C263        C  0.40206836  0.23171458  0.57835115     0.03100
C264        C  0.39918380  0.20744914  0.60496154    -0.04700
C265        C  0.37834171  0.21245692  0.63698669    -0.01800
C266        C  0.36311312  0.24152674  0.64315006     0.03100
C267        C  0.38268907  0.28134862  0.55211217     0.37800
C268        C  0.37106389  0.18768092  0.66346474     0.37800
C269        C  0.34456341  0.24701405  0.67732782     0.36200
C270        C  0.42388439  0.22868679  0.54617431     0.36200
N271        N  0.32982922  0.25151052  0.70457600    -0.38600
N272        N  0.44145638  0.22663741  0.52061248    -0.38600
N273        N  0.36492803  0.16804701  0.68462434    -0.38100
N274        N  0.38111768  0.29765261  0.52639429    -0.38100
C275        C  0.49664861  0.03573545  0.51231032    -0.04700
C276        C  0.48018944  0.02165950  0.48228623    -0.01900
C277        C  0.98872901  0.49151412  0.46878661     0.03100
C278        C  0.01786451  0.47745982  0.48406638    -0.04700
C279        C  0.03528138  0.49233544  0.51277200    -0.01800
C280        C  0.02602085  0.02190429  0.52533864     0.03100
C281        C  0.44906160  0.03458574  0.46844878     0.37800
C282        C  0.06492205  0.47800911  0.52853535     0.37800
C283        C  0.04372714  0.03673059  0.55565536     0.36200
C284        C  0.97116699  0.47743099  0.43779089     0.36200
N285        N  0.05833354  0.04742858  0.58028942    -0.38600
N286        N  0.95682698  0.46710806  0.41270949    -0.38600
N287        N  0.08839074  0.46632690  0.54113296    -0.38100
N288        N  0.42403704  0.04479020  0.45788900    -0.38100
C289        C  0.35090988  0.12018743  0.51507770    -0.04700
C290        C  0.31981985  0.10542113  0.52032348    -0.01900
C291        C  0.29419261  0.10869939  0.49325847     0.03100
C292        C  0.29957266  0.12654548  0.45989320    -0.04700
C293        C  0.33141301  0.14006612  0.45414060    -0.01800
C294        C  0.35640267  0.13772746  0.48189669     0.03100
C295        C  0.31437280  0.08630577  0.55334543     0.37800
C296        C  0.33913659  0.15563975  0.41907412     0.37800
C297        C  0.38745307  0.15473909  0.47669001     0.36200
C298        C  0.26215437  0.09397236  0.50082944     0.36200
N299        N  0.41192382  0.16867512  0.47223192    -0.38600
N300        N  0.23673588  0.08203116  0.50700099    -0.38600
N301        N  0.34569923  0.16776781  0.39104156    -0.38100
N302        N  0.31005318  0.07099942  0.57961965    -0.38100
C303        C  0.04914538  0.13833431  0.53894837    -0.04700
C304        C  0.08131394  0.12736737  0.54816420    -0.01900
C305        C  0.10769193  0.12953250  0.52198357     0.03100
C306        C  0.10306430  0.14486251  0.48707590    -0.04700
C307        C  0.07179992  0.15816644  0.47905089    -0.01800
C308        C  0.04488524  0.15462319  0.50441794     0.03100
C309        C  0.08768559  0.11461845  0.58510324     0.37800
C310        C  0.06728866  0.17562739  0.44458644     0.37800
C311        C  0.01266128  0.16713480  0.49371916     0.36200
C312        C  0.13911962  0.11431649  0.53052358     0.36200
N313        N  0.48478008  0.16441974  0.48003503    -0.38600
N314        N  0.16402475  0.10197366  0.53738264    -0.38600
N315        N  0.06375335  0.18955180  0.41711112    -0.38100
N316        N  0.09292214  0.10472763  0.61467395    -0.38100
C317        C  0.23157523  0.15527551  0.27997438    -0.04700
C318        C  0.25110850  0.12970141  0.26874791    -0.01900
C319        C  0.27185183  0.13166772  0.23660120     0.03100
C320        C  0.27426709  0.15964116  0.21610511    -0.06300
C321        C  0.25557304  0.18551286  0.22809970    -0.01800
C322        C  0.23396873  0.18317155  0.25928276     0.03100
C323        C  0.25029106  0.10144543  0.29077086     0.37800
C324        C  0.25970158  0.21515979  0.20918308     0.37800
C325        C  0.21537628  0.21013705  0.27113201     0.36200
C326        C  0.29028045  0.10478928  0.22431969     0.36200
N327        N  0.20070857  0.23181363  0.28028554    -0.38600
N328        N  0.30496025  0.08331529  0.21450215    -0.38600
N329        N  0.26325668  0.23887423  0.19438792    -0.38100
N330        N  0.24979488  0.07885678  0.30833919    -0.38100
C331        C  0.24144421  0.35754697  0.78205147    -0.04700
C332        C  0.23377785  0.33683164  0.75313642    -0.01900
C333        C  0.25454005  0.33497212  0.72133062     0.03100
C334        C  0.28159522  0.35607788  0.71575736    -0.04700
C335        C  0.28866579  0.37770936  0.74408331    -0.01800
C336        C  0.26918886  0.37794282  0.77743460     0.03100
C337        C  0.20414479  0.31742947  0.75577932     0.37800
C338        C  0.31506238  0.40039126  0.73840584     0.37800
C339        C  0.27671287  0.40014550  0.80639671     0.36200
C340        C  0.24833209  0.31050941  0.69456112     0.36200
N341        N  0.28253819  0.41799725  0.82947316    -0.38600
N342        N  0.24354863  0.29097496  0.67325110    -0.38600
N343        N  0.33603102  0.41858650  0.73377116    -0.38100
N344        N  0.18005594  0.30252853  0.75715940    -0.38100
C345        C  0.26895373  0.22582409  0.01168084    -0.04700
C346        C  0.25040968  0.24600115  0.03529580    -0.01900
C347        C  0.23291692  0.27149307  0.02031680     0.03100
C348        C  0.23323708  0.27696688  0.98169333    -0.04700
C349        C  0.25012286  0.25564113  0.95782824    -0.01800
C350        C  0.26773907  0.23024015  0.97289277     0.03100
C351        C  0.24827736  0.24041122  0.07530000     0.37800
C352        C  0.25216258  0.26089483  0.91767842     0.37800
C353        C  0.28632051  0.20980305  0.94861145     0.36200
C354        C  0.21359953  0.29146178  0.04445696     0.36200
N355        N  0.30120621  0.19354975  0.92920718    -0.38600
N356        N  0.19798028  0.30737632  0.06355665    -0.38600
N357        N  0.25413663  0.26483383  0.88575662    -0.38100
N358        N  0.24609184  0.23642519  0.10718641    -0.38100
C359        C  0.49155972  0.40624456  0.21387707    -0.04700
C360        C  0.02039299  0.38484599  0.21648508    -0.01900
C361        C  0.04048421  0.38658495  0.24919668     0.03100
C362        C  0.03078022  0.40565392  0.27908989    -0.04700
C363        C  0.50395411  0.42733938  0.27562424    -0.01800
C364        C  0.48358180  0.42624427  0.24341829     0.03100
C365        C  0.03025841  0.36460376  0.18633663     0.37800
C366        C  0.49610966  0.44976066  0.30437653     0.37800
C367        C  0.45522997  0.44698926  0.24000504     0.36200
C368        C  0.07103757  0.36881100  0.25191404     0.36200
N369        N  0.43273097  0.46363169  0.23740912    -0.38600
N370        N  0.09561669  0.35483229  0.25377186    -0.38600
N371        N  0.48988331  0.46754200  0.32733483    -0.38100
N372        N  0.03797184  0.34841547  0.16225016    -0.38100
C373        C  0.04435784  0.38786589  0.02689844    -0.04700
C374        C  0.07734347  0.39686583  0.03551804    -0.01900
C375        C  0.10328841  0.39283866  0.00913479     0.03100
C376        C  0.09680877  0.37902464  0.97386011    -0.04700
C377        C  0.06357589  0.37128151  0.96456300    -0.01800
C378        C  0.03747018  0.37599257  0.99064400     0.03100
C379        C  0.08480835  0.40958562  0.07197750     0.37800
C380        C  0.05627196  0.35743087  0.92867884     0.37800
C381        C  0.00327049  0.36958423  0.97926589     0.36200
C382        C  0.13673642  0.40364455  0.01828830     0.36200
N383        N  0.47127486  0.38160168  0.96290047    -0.38600
N384        N  0.16336086  0.41229946  0.02564295    -0.38600
N385        N  0.05046288  0.34617817  0.90015892    -0.38100
N386        N  0.09064344  0.41968387  0.10111868    -0.38100
C387        C  0.29684380  0.37411426  0.96662798    -0.04700
C388        C  0.30643492  0.40518478  0.97392472    -0.01900
C389        C  0.32806729  0.41222792  0.00404830     0.03100
C390        C  0.33837323  0.38882989  0.02953589    -0.04700
C391        C  0.32759203  0.35818932  0.02318435    -0.01800
C392        C  0.30993002  0.35060936  0.99019326     0.03100
C393        C  0.29538603  0.43003642  0.94938535     0.37800
C394        C  0.33469081  0.33408514  0.05035202     0.37800
C395        C  0.30900404  0.31860779  0.97888161     0.36200
C396        C  0.34018993  0.44374592  0.00836129     0.36200
N397        N  0.31085721  0.29307418  0.96978941    -0.38600
N398        N  0.35006744  0.46882885  0.01138296    -0.38600
N399        N  0.33883717  0.31460364  0.07218631    -0.38100
N400        N  0.28646169  0.44990110  0.92997274    -0.38100
C401        C  0.35411502  0.05251771  0.11165860    -0.04700
C402        C  0.33919911  0.02514452  0.09863173    -0.01900
C403        C  0.35340318  0.99601616  0.10744316     0.03100
C404        C  0.38427851  0.99390776  0.12756648    -0.04700
C405        C  0.39905361  0.02170823  0.14056977    -0.01800
C406        C  0.38397990  0.05059465  0.13297178     0.03100
C407        C  0.30896756  0.02693236  0.07623774     0.37800
C408        C  0.42984951  0.02106835  0.16208395     0.37800
C409        C  0.40033304  0.07862368  0.14601828     0.36200
C410        C  0.33541661  0.46911239  0.10207661     0.36200
N411        N  0.41339958  0.10086699  0.15655346    -0.38600
N412        N  0.31961377  0.44721967  0.09593990    -0.38600
N413        N  0.45450318  0.02077774  0.17903857    -0.38100
N414        N  0.28503982  0.02838605  0.05811762    -0.38100
C415        C  0.40711134  0.30311537  0.10927734    -0.04700
C416        C  0.40867773  0.28007828  0.08146060    -0.01900
C417        C  0.39197410  0.25141855  0.08666097     0.03100
C418        C  0.37470679  0.24474792  0.12038857    -0.04700
C419        C  0.37505453  0.26652455  0.14922066    -0.01800
C420        C  0.39076797  0.29557222  0.14387330     0.03100
C421        C  0.42743386  0.28564589  0.04730884     0.37800
C422        C  0.35937961  0.25879471  0.18475865     0.37800
C423        C  0.38862107  0.31763480  0.17417036     0.36200
C424        C  0.39098814  0.22957352  0.05612549     0.36200
N425        N  0.38678853  0.33495833  0.19857424    -0.38600
N426        N  0.39017940  0.21265295  0.03126210    -0.38600
N427        N  0.34702942  0.25246689  0.21307941    -0.38100
N428        N  0.44249047  0.29005876  0.02013274    -0.38100
C429        C  0.48181765  0.10818602  0.71887491    -0.04700
C430        C  0.00880348  0.13052030  0.72539798    -0.01900
C431        C  0.02903606  0.12742407  0.75776849     0.03100
C432        C  0.02467586  0.10173083  0.78200866    -0.04700
C433        C  0.49868292  0.07783716  0.77352642    -0.01800
C434        C  0.47783893  0.08189585  0.74211526     0.03100
C435        C  0.01433922  0.15636302  0.69987903     0.37800
C436        C  0.49700282  0.04878817  0.79428958     0.37800
C437        C  0.45373425  0.05804195  0.73250363     0.36200
C438        C  0.05418805  0.15059525  0.76598321     0.36200
N439        N  0.43449277  0.03887863  0.72508583    -0.38600
N440        N  0.07439126  0.16916188  0.77233320    -0.38600
N441        N  0.49580428  0.02541447  0.81013334    -0.38100
N442        N  0.01866716  0.17681382  0.67940502    -0.38100
C443        C  0.47926776  0.48454673  0.01695754    -0.04700
C444        C  0.00840427  0.49828626  0.03700358    -0.01900
C445        C  0.02293226  0.02549809  0.02366899     0.03100
C446        C  0.02041399  0.03316519  0.98572147    -0.04700
C447        C  0.49473872  0.01768540  0.96320301    -0.01800
C448        C  0.47700266  0.99186655  0.97712470     0.03100
C449        C  0.01558310  0.48845746  0.07503841     0.37800
C450        C  0.49085836  0.02549192  0.92398162     0.37800
C451        C  0.45557270  0.97382971  0.95267737     0.36200
C452        C  0.04477555  0.04344722  0.04768399     0.36200
N453        N  0.43858305  0.95937749  0.93322573    -0.38600
N454        N  0.06218750  0.05780507  0.06676292    -0.38600
N455        N  0.48709767  0.03099476  0.89258844    -0.38100
N456        N  0.02178630  0.48100599  0.10538307    -0.38100
C457        C  0.13932559  0.26610731  0.87296004    -0.04700
C458        C  0.11557945  0.26209214  0.90233108    -0.01900
C459        C  0.09856594  0.23357612  0.90781416     0.03100
C460        C  0.10665034  0.20766305  0.88603464    -0.04700
C461        C  0.13107585  0.21137164  0.85720156    -0.01800
C462        C  0.14691246  0.24030995  0.85061573     0.03100
C463        C  0.11064016  0.28599824  0.92981372     0.37800
C464        C  0.14127276  0.18524186  0.83465562     0.37800
C465        C  0.17170858  0.24298411  0.82114027     0.36200
C466        C  0.07216155  0.23119808  0.93560628     0.36200
N467        N  0.19171178  0.24432481  0.79779976    -0.38600
N468        N  0.05090692  0.22933928  0.95750078    -0.38600
N469        N  0.14948196  0.16460434  0.81644987    -0.38100
N470        N  0.10638145  0.30378265  0.95325009    -0.38100
C471        C  0.15705335  0.45772057  0.88992743    -0.04700
C472        C  0.16048688  0.48213911  0.91568316    -0.01900
C473        C  0.14232422  0.00976715  0.91018582     0.03100
C474        C  0.12287749  0.01483276  0.87760230    -0.04700
C475        C  0.11942420  0.49092263  0.85216077    -0.01800
C476        C  0.13571227  0.46231872  0.85826656     0.03100
C477        C  0.18298901  0.47912621  0.94728373     0.37800
C478        C  0.09935099  0.49563033  0.81880970     0.37800
C479        C  0.12877893  0.43736205  0.83238138     0.36200
C480        C  0.14114490  0.03158938  0.94069974     0.36200
N481        N  0.12307626  0.41753227  0.81176302    -0.38600
N482        N  0.13987773  0.04812046  0.96588863    -0.38600
N483        N  0.08339620  0.49928503  0.79216423    -0.38100
N484        N  0.20107146  0.47691701  0.97241251    -0.38100
C485        C  0.16515683  0.12809366  0.97688252    -0.04700
C486        C  0.15971287  0.14753946  0.00805895    -0.01900
C487        C  0.18443806  0.15115905  0.03593316     0.03100
C488        C  0.21540343  0.13578028  0.03292011    -0.04700
C489        C  0.22140296  0.11750246  0.00050640    -0.01800
C490        C  0.19627006  0.11341434  0.97309081     0.03100
C491        C  0.12860798  0.16449351  0.01128577     0.37800
C492        C  0.25391756  0.10375870  0.99395444     0.37800
C493        C  0.20220207  0.09332401  0.94150942     0.36200
C494        C  0.17761451  0.17055812  0.06793270     0.36200
N495        N  0.20707760  0.07713736  0.91651166    -0.38600
N496        N  0.17215679  0.18612406  0.09335459    -0.38600
N497        N  0.27982276  0.09284925  0.98847413    -0.38100
N498        N  0.10395339  0.17820224  0.01401770    -0.38100
C499        C  0.46359368  0.12633464  0.96519800    -0.04700
C500        C  0.43293823  0.11009984  0.96182665    -0.01900
C501        C  0.40833937  0.11222133  0.98997603     0.03100
C502        C  0.41321529  0.13160111  0.02124392    -0.04700
C503        C  0.44405422  0.14688861  0.02565840    -0.01800
C504        C  0.46910973  0.14443150  0.99789622     0.03100
C505        C  0.42617308  0.09145323  0.92911419     0.37800
C506        C  0.45006496  0.16510839  0.05889111     0.37800
C507        C  0.50090475  0.15989715  0.00421774     0.36200
C508        C  0.37843517  0.09311269  0.98758391     0.36200
N509        N  0.02900212  0.16557774  0.01545658    -0.38600
N510        N  0.35492939  0.07745638  0.98578284    -0.38600
N511        N  0.45493765  0.17943283  0.08553714    -0.38100
N512        N  0.42059621  0.07657300  0.90309097    -0.38100
Fe513      Fe  0.03799370  0.57220681  0.89355284     1.65800
Fe514      Fe  0.10428448  0.61416245  0.87190313     1.73200
Fe515      Fe  0.06285726  0.62680306  0.95130477     1.54400
O516        O  0.01666854  0.64074708  0.93466208    -0.81100
O517        O  0.13716007  0.62586141  0.91717616    -0.79400
O518        O  0.49678097  0.59504986  0.92502300    -0.83600
O519        O  0.05530720  0.55089435  0.93924095    -0.78400
O520        O  0.08423585  0.66817840  0.92808981    -0.80200
O521        O  0.12151897  0.56975945  0.87754387    -0.83000
C522        C  0.04104004  0.55847316  0.96870406     0.97800
C523        C  0.49332240  0.62209233  0.93875831     1.05200
O524        O  0.06812383  0.60513719  0.90497263    -1.11900
O525        O  0.07388240  0.60434312  0.82366476    -0.74400
O526        O  0.02296266  0.59399620  0.84662079    -0.77900
O527        O  0.04093424  0.58689309  0.97898216    -0.78600
C528        C  0.04204784  0.60060391  0.81946975     0.96700
O529        O  0.07384435  0.54590459  0.86517472    -0.76500
O530        O  0.08819079  0.65849575  0.86752571    -0.81700
C531        C  0.13537006  0.62204735  0.95285699     0.99300
C532        C  0.09095042  0.67698648  0.89448793     1.05200
O533        O  0.10864413  0.61342158  0.96884447    -0.77300
C534        C  0.10498556  0.54506514  0.87287962     1.03500
Fe535      Fe  0.46885394  0.93951752  0.10365803     1.65800
Fe536      Fe  0.40563509  0.89486900  0.12708509     1.73200
Fe537      Fe  0.44058951  0.88894083  0.04318778     1.54400
O538        O  0.45987420  0.93057264  0.01765633    -0.81100
O539        O  0.42510467  0.85193538  0.12580122    -0.79400
O540        O  0.44697454  0.96289934  0.06190653    -0.83600
O541        O  0.01106918  0.92078777  0.07088131    -0.78400
O542        O  0.39390074  0.90405361  0.03286943    -0.80200
O543        O  0.43862398  0.90351471  0.17311253    -0.83000
C544        C  0.01563303  0.89453256  0.05511157     0.97800
C545        C  0.45968285  0.95803908  0.03082126     1.05200
O546        O  0.43912300  0.90680626  0.09199916    -1.11900
O547        O  0.38618700  0.93846917  0.12707500    -0.74400
O548        O  0.43387831  0.96241699  0.13713560    -0.77900
O549        O  0.48810774  0.87451089  0.05223897    -0.78600
C550        C  0.40234100  0.96337802  0.13143338     0.96700
O551        O  0.48808821  0.91536374  0.14742126    -0.76500
O552        O  0.36978755  0.88434771  0.08376135    -0.81700
C553        C  0.41930518  0.83487865  0.09823268     0.99300
C554        C  0.36862951  0.89273530  0.04914100     1.05200
O555        O  0.42165682  0.84577885  0.06471886    -0.77300
C556        C  0.47063044  0.90705280  0.17530104     1.03500
Fe557      Fe  0.22100947  0.82155617  0.89018973     1.65800
Fe558      Fe  0.15800561  0.86677308  0.86912762     1.73200
Fe559      Fe  0.19670298  0.87342085  0.95089440     1.54400
O560        O  0.21510157  0.83131431  0.97649928    -0.81100
O561        O  0.17800426  0.90988025  0.86847154    -0.79400
O562        O  0.19939136  0.79923245  0.93331795    -0.83600
O563        O  0.26127332  0.83947556  0.92334024    -0.78400
O564        O  0.14957410  0.86052599  0.96466776    -0.80200
O565        O  0.18940839  0.85752272  0.82167978    -0.83000
C566        C  0.26658175  0.86595785  0.93836837     0.97800
C567        C  0.21213995  0.80346374  0.96451830     1.05200
O568        O  0.19254742  0.85491463  0.90268620    -1.11900
O569        O  0.13759947  0.82299898  0.87175383    -0.74400
O570        O  0.18449016  0.79905459  0.85830531    -0.77900
O571        O  0.24411867  0.88645591  0.93790268    -0.78600
C572        C  0.15343345  0.79812273  0.86651402     0.96700
O573        O  0.23949593  0.84507522  0.84509657    -0.76500
O574        O  0.12432349  0.87873160  0.91378989    -0.81700
C575        C  0.17318761  0.92696771  0.89629786     0.99300
C576        C  0.12449091  0.87280229  0.94913809     1.05200
O577        O  0.17815658  0.91661611  0.92966269    -0.77300
C578        C  0.22135667  0.85408917  0.81810225     1.03500
Fe579      Fe  0.28858909  0.68963622  0.10420796     1.65800
Fe580      Fe  0.35356708  0.64611303  0.12610906     1.73200
Fe581      Fe  0.31169911  0.63478408  0.04674055     1.54400
O582        O  0.26531391  0.62158050  0.06426921    -0.81100
O583        O  0.38619849  0.63516251  0.08050549    -0.79400
O584        O  0.24782297  0.66913675  0.07430208    -0.83600
O585        O  0.30709338  0.71036741  0.05810937    -0.78400
O586        O  0.33270182  0.59301533  0.06882956    -0.80200
O587        O  0.37209794  0.69002344  0.12099782    -0.83000
C588        C  0.29114319  0.70328947  0.02951617     0.97800
C589        C  0.24311672  0.64210756  0.06054985     1.05200
O590        O  0.31757305  0.65593199  0.09320607    -1.11900
O591        O  0.32268837  0.65546470  0.17429474    -0.74400
O592        O  0.27247991  0.66832241  0.15121267    -0.77900
O593        O  0.29029039  0.67481785  0.01954762    -0.78600
C594        C  0.29095801  0.66024906  0.17825789     0.96700
O595        O  0.32516589  0.71466337  0.13296795    -0.76500
O596        O  0.33729577  0.60180116  0.12973190    -0.81700
C597        C  0.38439564  0.63967673  0.04496206     0.99300
C598        C  0.34012569  0.58403657  0.10210698     1.05200
O599        O  0.35760853  0.64824122  0.02924075    -0.77300
C600        C  0.35625254  0.71487954  0.12522513     1.03500
Fe601      Fe  0.47927181  0.57771180  0.61016127     1.65800
Fe602      Fe  0.40755239  0.61311335  0.62499319     1.73200
Fe603      Fe  0.44912168  0.62512173  0.54571972     1.54400
O604        O  0.99279018  0.64629424  0.56120438    -0.81100
O605        O  0.37486699  0.61987618  0.57773320    -0.79400
O606        O  0.01754598  0.60307153  0.57901565    -0.83600
O607        O  0.46953686  0.55054372  0.56685795    -0.78400
O608        O  0.42290810  0.66539051  0.56474186    -0.80200
O609        O  0.39491291  0.56779684  0.62323991    -0.83000
C610        C  0.47825500  0.55823526  0.53450153     0.97800
C611        C  0.01857402  0.62952043  0.56248955     1.05200
O612        O  0.44527586  0.60543441  0.59361537    -1.11900
O613        O  0.43656814  0.60731540  0.67509693    -0.74400
O614        O  0.48904703  0.60482444  0.65461564    -0.77900
O615        O  0.47492238  0.58611602  0.52219267    -0.78600
C616        C  0.46836017  0.60819477  0.68087715     0.96700
O617        O  0.44445525  0.54928329  0.63943665    -0.76500
O618        O  0.41991439  0.65850790  0.62595908    -0.81700
C619        C  0.37792843  0.61364451  0.54275489     0.99300
C620        C  0.41503785  0.67519918  0.59746358     1.05200
O621        O  0.40560751  0.60565349  0.52900448    -0.77300
C622        C  0.41345324  0.54518933  0.63152027     1.03500
Fe623      Fe  0.03667560  0.93452373  0.38689853     1.65800
Fe624      Fe  0.10880315  0.89995840  0.36979501     1.73200
Fe625      Fe  0.06771288  0.88705092  0.44953893     1.54400
O626        O  0.04202309  0.92567474  0.47419347    -0.81100
O627        O  0.09877973  0.85379150  0.36792135    -0.79400
O628        O  0.04645650  0.96167157  0.43004833    -0.83600
O629        O  0.49904215  0.91221415  0.41747784    -0.78400
O630        O  0.11131006  0.90727676  0.46466858    -0.80200
O631        O  0.07894589  0.90667656  0.32004464    -0.83000
C632        C  0.49799362  0.88576682  0.43400774     0.97800
C633        C  0.03805206  0.95359505  0.46231991     1.05200
O634        O  0.07098762  0.90670329  0.40187685    -1.11900
O635        O  0.12047078  0.94560641  0.37316752    -0.74400
O636        O  0.07080569  0.96410050  0.35791922    -0.77900
O637        O  0.02370817  0.86682784  0.43510738    -0.78600
C638        C  0.10176115  0.96837337  0.36604044     0.96700
O639        O  0.02739497  0.90703494  0.34304733    -0.76500
O640        O  0.14181444  0.89253999  0.41627602    -0.81700
C641        C  0.10001735  0.83644966  0.39665402     0.99300
C642        C  0.13891136  0.89892758  0.45117482     1.05200
O643        O  0.09248933  0.84671272  0.42928470    -0.77300
C644        C  0.04694550  0.90633229  0.31548585     1.03500
Fe645      Fe  0.28774984  0.82786590  0.60402972     1.65800
Fe646      Fe  0.35880501  0.86334296  0.62305769     1.73200
Fe647      Fe  0.31822421  0.87751574  0.54291880     1.54400
O648        O  0.29374783  0.83811125  0.51735793    -0.81100
O649        O  0.34912619  0.90937756  0.62548819    -0.79400
O650        O  0.30163826  0.80239389  0.56091997    -0.83600
O651        O  0.25021455  0.85104401  0.57209910    -0.78400
O652        O  0.36203857  0.85946971  0.52690764    -0.80200
O653        O  0.32734186  0.85642171  0.67225480    -0.83000
C654        C  0.24865719  0.87773832  0.55638556     0.97800
C655        C  0.29185135  0.80988811  0.52905609     1.05200
O656        O  0.32141988  0.85719219  0.59045392    -1.11900
O657        O  0.37068711  0.81768792  0.61856611    -0.74400
O658        O  0.32103780  0.79926122  0.63391424    -0.77900
O659        O  0.27344585  0.89587370  0.55760780    -0.78600
C660        C  0.35135012  0.79491894  0.62395779     0.96700
O661        O  0.27599568  0.85401748  0.64842944    -0.76500
O662        O  0.39246513  0.87116632  0.57691220    -0.81700
C663        C  0.35122991  0.92699395  0.59709065     0.99300
C664        C  0.38965792  0.86655840  0.54151331     1.05200
O665        O  0.34311112  0.91794340  0.56408258    -0.77300
C666        C  0.29512472  0.85608717  0.67635500     1.03500
Fe667      Fe  0.23046124  0.68401637  0.38890477     1.65800
Fe668      Fe  0.15746672  0.64865754  0.37647866     1.73200
Fe669      Fe  0.20292974  0.63450757  0.45298992     1.54400
O670        O  0.24573005  0.61573578  0.43275039    -0.81100
O671        O  0.12720522  0.64243498  0.42543604    -0.79400
O672        O  0.26976018  0.65974555  0.41705766    -0.83600
O673        O  0.22259256  0.70958904  0.43347071    -0.78400
O674        O  0.17581738  0.59427336  0.43477548    -0.80200
O675        O  0.14564562  0.69411076  0.37958919    -0.83000
C676        C  0.23368227  0.70121729  0.46455831     0.97800
C677        C  0.27103240  0.63321359  0.43331905     1.05200
O678        O  0.19678411  0.65546258  0.40600579    -1.11900
O679        O  0.18506154  0.65450851  0.32491277    -0.74400
O680        O  0.23837674  0.65850876  0.34280962    -0.77900
O681        O  0.23042428  0.67312421  0.47635789    -0.78600
C682        C  0.21671552  0.65457928  0.31768803     0.96700
O683        O  0.19493553  0.71384353  0.36323836    -0.76500
O684        O  0.16660597  0.60251677  0.37405756    -0.81700
C685        C  0.13163534  0.64742583  0.46054130     0.99300
C686        C  0.16570097  0.58507441  0.40258447     1.05200
O687        O  0.16034736  0.65292579  0.47376422    -0.77300
C688        C  0.16405028  0.71706427  0.37207383     1.03500
C689        C  0.25216124  0.72584833  0.48431677    -0.04700
C690        C  0.23891513  0.73824722  0.51712282    -0.01900
C691        C  0.24922575  0.76782800  0.52880615     0.03100
C692        C  0.27476925  0.78445391  0.50927182    -0.04700
C693        C  0.28908365  0.77148786  0.47733727    -0.01800
C694        C  0.27730647  0.74270874  0.46431819     0.03100
C695        C  0.21371203  0.72111631  0.53808892     0.37800
C696        C  0.31648677  0.78734979  0.45852117     0.37800
C697        C  0.29038326  0.73111281  0.42934500     0.36200
C698        C  0.23317330  0.78110809  0.56121572     0.36200
N699        N  0.30060011  0.72265657  0.40098252    -0.38600
N700        N  0.21975294  0.79109031  0.58704078    -0.38600
N701        N  0.33842831  0.79996647  0.44364649    -0.38100
N702        N  0.19364916  0.70748741  0.55487468    -0.38100
C703        C  0.41800534  0.87094108  0.51462665    -0.04700
C704        C  0.41231632  0.88733114  0.48061750    -0.01900
C705        C  0.43726527  0.88938768  0.45283576     0.03100
C706        C  0.46940720  0.87733766  0.45952639    -0.04700
C707        C  0.47505170  0.86049294  0.49352051    -0.01800
C708        C  0.44947393  0.85742512  0.52075357     0.03100
C709        C  0.38127037  0.90387543  0.47467018     0.37800
C710        C  0.50711795  0.84617596  0.50121018     0.37800
C711        C  0.45557497  0.84038467  0.55516314     0.36200
C712        C  0.42915178  0.90271746  0.41660644     0.36200
N713        N  0.46043361  0.82690938  0.58269845    -0.38600
N714        N  0.42235018  0.91290025  0.38758814    -0.38600
N715        N  0.03146331  0.83162263  0.50832720    -0.38100
N716        N  0.35686182  0.91752262  0.46963640    -0.38100
C717        C  0.16706921  0.89464789  0.47831256    -0.04700
C718        C  0.19971633  0.90479551  0.46980355    -0.01900
C719        C  0.22582552  0.90083707  0.49607834     0.03100
C720        C  0.21993390  0.88568535  0.53105573    -0.04700
C721        C  0.18707640  0.87598435  0.53971960    -0.01800
C722        C  0.16073358  0.88117668  0.51412995     0.03100
C723        C  0.20631064  0.92055245  0.43455909     0.37800
C724        C  0.18000483  0.86103291  0.57534739     0.37800
C725        C  0.12703857  0.87201941  0.52495706     0.36200
C726        C  0.25888575  0.91212738  0.48620753     0.36200
N727        N  0.10022468  0.86469470  0.53363304    -0.38600
N728        N  0.28499895  0.92166430  0.47809664    -0.38600
N729        N  0.17414606  0.84900943  0.60363456    -0.38100
N730        N  0.21173598  0.93324517  0.40659231    -0.38100
C731        C  0.11730433  0.49860479  0.37252636    -0.04700
C732        C  0.09849767  0.52354435  0.38681545    -0.01900
C733        C  0.11473074  0.55076985  0.39941665     0.03100
C734        C  0.14996812  0.55401317  0.39718477    -0.04700
C735        C  0.16867975  0.52986097  0.38147284    -0.01800
C736        C  0.15256799  0.50264673  0.36867303     0.03100
C737        C  0.06226943  0.52169396  0.38842394     0.37800
C738        C  0.20475021  0.53308457  0.37859153     0.37800
C739        C  0.17131714  0.98202347  0.34448685     0.36200
C740        C  0.09463311  0.57547483  0.41466122     0.36200
N741        N  0.18666774  0.96441037  0.32745171    -0.38600
N742        N  0.07743934  0.59438061  0.42674864    -0.38600
N743        N  0.23354074  0.53563889  0.37670349    -0.38100
N744        N  0.03333340  0.52074145  0.38936189    -0.38100
C745        C  0.14872262  0.74810795  0.37719028    -0.04700
C746        C  0.14748090  0.76066664  0.41348510    -0.01900
C747        C  0.13232017  0.78951326  0.41996378     0.03100
C748        C  0.11355370  0.80427839  0.39152097    -0.04700
C749        C  0.11025096  0.78891118  0.35668218    -0.01800
C750        C  0.12886590  0.76179304  0.34907317     0.03100
C751        C  0.15765316  0.74227886  0.44549125     0.37800
C752        C  0.08538311  0.79918031  0.32990715     0.37800
C753        C  0.12561616  0.74674714  0.31319499     0.36200
C754        C  0.13642657  0.80330158  0.45638681     0.36200
N755        N  0.12271349  0.73473925  0.28459191    -0.38600
N756        N  0.14050239  0.81314351  0.48595873    -0.38600
N757        N  0.06483908  0.80669000  0.30900205    -0.38100
N758        N  0.16360063  0.72788767  0.47201044    -0.38100
C759        C  0.39821851  0.51359478  0.62830126    -0.04700
C760        C  0.36336368  0.50924266  0.63451760    -0.01900
C761        C  0.34906497  0.98014662  0.62495873     0.03100
C762        C  0.36638848  0.95805972  0.60358890    -0.04700
C763        C  0.40085600  0.96291372  0.59635063    -0.01800
C764        C  0.41746903  0.98961450  0.60946379     0.03100
C765        C  0.34469779  0.53163606  0.65604576     0.37800
C766        C  0.42028250  0.94032138  0.57627813     0.37800
C767        C  0.45354618  0.99193279  0.60547808     0.36200
C768        C  0.31468227  0.97409221  0.63594126     0.36200
N769        N  0.48240117  0.99290740  0.60292200    -0.38600
N770        N  0.28734749  0.96901558  0.64485626    -0.38600
N771        N  0.43791446  0.92380794  0.56052894    -0.38100
N772        N  0.32977882  0.54932369  0.67344551    -0.38100
C773        C  0.36491155  0.76333921  0.61630220    -0.04700
C774        C  0.38417592  0.75843312  0.58353195    -0.01900
C775        C  0.40149465  0.73043527  0.57798075     0.03100
C776        C  0.39741548  0.70553507  0.60330626    -0.04700
C777        C  0.37520718  0.70945640  0.63431250    -0.01800
C778        C  0.36001737  0.73840925  0.64125995     0.03100
C779        C  0.38453147  0.78118187  0.55361642     0.37800
C780        C  0.36681296  0.68364084  0.65889692     0.37800
C781        C  0.33978412  0.74259061  0.67449989     0.36200
C782        C  0.42423340  0.72792832  0.54651616     0.36200
N783        N  0.32370790  0.74585366  0.70106810    -0.38600
N784        N  0.44249812  0.72630461  0.52151522    -0.38600
N785        N  0.36001000  0.66310413  0.67849725    -0.38100
N786        N  0.38494356  0.79791887  0.52827059    -0.38100
C787        C  0.49481419  0.53337284  0.51347899    -0.04700
C788        C  0.47733235  0.51796813  0.48514822    -0.01900
C789        C  0.99111405  0.99105982  0.46884821     0.03100
C790        C  0.02096947  0.97798719  0.48362115    -0.04700
C791        C  0.03820381  0.99350289  0.51198084    -0.01800
C792        C  0.02441489  0.52137524  0.52547610     0.03100
C793        C  0.44520079  0.52967451  0.47264842     0.37800
C794        C  0.06917673  0.98072056  0.52643043     0.37800
C795        C  0.04354643  0.53667693  0.55436783     0.36200
C796        C  0.97414431  0.97693933  0.43750452     0.36200
N797        N  0.05945250  0.54808428  0.57750318    -0.38600
N798        N  0.96033416  0.96687521  0.41192090    -0.38600
N799        N  0.09386063  0.97042602  0.53783012    -0.38100
N800        N  0.41938450  0.53883649  0.46313077    -0.38100
C801        C  0.35005552  0.61831531  0.51547519    -0.04700
C802        C  0.31969707  0.60199004  0.51872659    -0.01900
C803        C  0.29404401  0.60633522  0.49188190     0.03100
C804        C  0.29949482  0.62527843  0.45938306    -0.04700
C805        C  0.33117064  0.63949938  0.45491575    -0.01800
C806        C  0.35551878  0.63721132  0.48340663     0.03100
C807        C  0.31540477  0.57963010  0.54884825     0.37800
C808        C  0.33952677  0.65563827  0.42040701     0.37800
C809        C  0.38602724  0.65529734  0.47990328     0.36200
C810        C  0.26177279  0.59196598  0.49916459     0.36200
N811        N  0.40999109  0.67018681  0.47673552    -0.38600
N812        N  0.23603812  0.58060136  0.50527851    -0.38600
N813        N  0.34675185  0.66810832  0.39279466    -0.38100
N814        N  0.31218074  0.56138224  0.57245089    -0.38100
C815        C  0.04854521  0.63860595  0.53921962    -0.04700
C816        C  0.08092168  0.62863732  0.54927386    -0.01900
C817        C  0.10776206  0.63118210  0.52358713     0.03100
C818        C  0.10314797  0.64531603  0.48787146    -0.04700
C819        C  0.07151842  0.65760657  0.47902375    -0.01800
C820        C  0.04437448  0.65406791  0.50415675     0.03100
C821        C  0.08694916  0.61642209  0.58655596     0.37800
C822        C  0.06687247  0.67422384  0.44399716     0.37800
C823        C  0.01197916  0.66575779  0.49272627     0.36200
C824        C  0.13978224  0.61779678  0.53375521     0.36200
N825        N  0.48181487  0.65912459  0.47682710    -0.38600
N826        N  0.16519946  0.60703620  0.54206459    -0.38600
N827        N  0.06326915  0.68748303  0.41606313    -0.38100
N828        N  0.09182672  0.60688437  0.61637175    -0.38100
C829        C  0.23054061  0.65354980  0.27897762    -0.04700
C830        C  0.25042534  0.62817190  0.26779580    -0.01900
C831        C  0.27163916  0.63048451  0.23600281     0.03100
C832        C  0.27360116  0.65840522  0.21530594    -0.06300
C833        C  0.25389348  0.68383637  0.22676706    -0.01800
C834        C  0.23251779  0.68137327  0.25812192     0.03100
C835        C  0.24928496  0.59970027  0.28942638     0.37800
C836        C  0.25644920  0.71322659  0.20694762     0.37800
C837        C  0.21409389  0.70835808  0.27017720     0.36200
C838        C  0.29099867  0.60400381  0.22427844     0.36200
N839        N  0.19987054  0.73025543  0.27940263    -0.38600
N840        N  0.30648170  0.58286685  0.21493911    -0.38600
N841        N  0.25845150  0.73673598  0.19135733    -0.38100
N842        N  0.24833246  0.57693502  0.30665596    -0.38100
C843        C  0.23841479  0.85778823  0.78093723    -0.04700
C844        C  0.22809898  0.83947529  0.75072230    -0.01900
C845        C  0.24817280  0.83730166  0.71836424     0.03100
C846        C  0.27764025  0.85576971  0.71381372    -0.04700
C847        C  0.28719754  0.87528253  0.74348883    -0.01800
C848        C  0.26816580  0.87573374  0.77714171     0.03100
C849        C  0.19694004  0.82212948  0.75308642     0.37800
C850        C  0.31593007  0.89559272  0.73908947     0.37800
C851        C  0.27864007  0.89544808  0.80758620     0.36200
C852        C  0.23893740  0.81457340  0.69053121     0.36200
N853        N  0.28691602  0.91122167  0.83192036    -0.38600
N854        N  0.23146163  0.79621567  0.66867114    -0.38600
N855        N  0.33875082  0.91193090  0.73549354    -0.38100
N856        N  0.17184058  0.80873018  0.75455052    -0.38100
C857        C  0.26844650  0.72747838  0.01336462    -0.04700
C858        C  0.25597520  0.75192523  0.03626253    -0.01900
C859        C  0.23624884  0.77588050  0.02089761     0.03100
C860        C  0.22800844  0.77576993  0.98276538    -0.04700
C861        C  0.23742333  0.74946424  0.96088868    -0.01800
C862        C  0.25770975  0.72589618  0.97610485     0.03100
C863        C  0.26202747  0.75244833  0.07623029     0.37800
C864        C  0.22761544  0.74625502  0.92203089     0.37800
C865        C  0.26824098  0.70036821  0.95272747     0.36200
C866        C  0.22361751  0.80022776  0.04479078     0.36200
N867        N  0.27645129  0.68001774  0.93408261    -0.38600
N868        N  0.21338135  0.81951407  0.06383405    -0.38600
N869        N  0.22006553  0.74303135  0.89109177    -0.38100
N870        N  0.26640836  0.75341862  0.10815018    -0.38100
C871        C  0.48860526  0.90468676  0.21177555    -0.04700
C872        C  0.01789384  0.88565662  0.21670888    -0.01900
C873        C  0.03837434  0.88725420  0.24899149     0.03100
C874        C  0.03011410  0.90761611  0.27814093    -0.04700
C875        C  0.50039634  0.92713561  0.27287048    -0.01800
C876        C  0.47995444  0.92484635  0.24086779     0.03100
C877        C  0.02587144  0.86392408  0.18739022     0.37800
C878        C  0.49219813  0.95027787  0.30061671     0.37800
C879        C  0.45063815  0.94440575  0.23723147     0.36200
C880        C  0.06785759  0.86804869  0.25199058     0.36200
N881        N  0.42725539  0.95994058  0.23438552    -0.38600
N882        N  0.09164909  0.85296404  0.25390010    -0.38600
N883        N  0.48564578  0.96877959  0.32260443    -0.38100
N884        N  0.03200049  0.84649034  0.16401972    -0.38100
C885        C  0.04361813  0.89020724  0.02767218    -0.04700
C886        C  0.07673023  0.89879036  0.03635499    -0.01900
C887        C  0.10272276  0.89429253  0.01006464     0.03100
C888        C  0.09597314  0.88124040  0.97438382    -0.04700
C889        C  0.06257435  0.87428877  0.96493509    -0.01800
C890        C  0.03664291  0.87845270  0.99138540     0.03100
C891        C  0.08432349  0.91115822  0.07295582     0.37800
C892        C  0.05491615  0.86168688  0.92846673     0.37800
C893        C  0.00256760  0.87084290  0.98065751     0.36200
C894        C  0.13656979  0.90347422  0.01994330     0.36200
N895        N  0.47100243  0.87812419  0.96277601    -0.38600
N896        N  0.16355043  0.91065292  0.02795261    -0.38600
N897        N  0.04885803  0.85153197  0.89940924    -0.38100
N898        N  0.09033093  0.92094419  0.10221227    -0.38100
C899        C  0.29641643  0.87204576  0.96280333    -0.04700
C900        C  0.30781299  0.90280937  0.96814760    -0.01900
C901        C  0.32982384  0.90997074  0.99780306     0.03100
C902        C  0.33917633  0.88696861  0.02432016    -0.04700
C903        C  0.32720719  0.85646404  0.01933802    -0.01800
C904        C  0.30850786  0.84866932  0.98716069     0.03100
C905        C  0.29808151  0.92707928  0.94207890     0.37800
C906        C  0.33393486  0.83275313  0.04711302     0.37800
C907        C  0.30440052  0.81635573  0.97779320     0.36200
C908        C  0.34314286  0.94121686  0.00067051     0.36200
N909        N  0.30296324  0.79052723  0.96970544    -0.38600
N910        N  0.35398233  0.96604450  0.00262994    -0.38600
N911        N  0.33779616  0.81353297  0.06934836    -0.38100
N912        N  0.29029210  0.94645972  0.92137037    -0.38100
C913        C  0.35613903  0.55349859  0.10946453    -0.04700
C914        C  0.34027289  0.52568879  0.09969244    -0.01900
C915        C  0.35446887  0.49691911  0.11016873     0.03100
C916        C  0.38619986  0.49550490  0.12874258    -0.04700
C917        C  0.40185368  0.52382248  0.13857960    -0.01800
C918        C  0.38697011  0.55242236  0.12904378     0.03100
C919        C  0.30891371  0.52675178  0.07926235     0.37800
C920        C  0.43302997  0.52402740  0.15940294     0.37800
C921        C  0.40423847  0.58096034  0.13866596     0.36200
C922        C  0.33551456  0.96852013  0.09552457     0.36200
N923        N  0.41822405  0.60350595  0.14652874    -0.38600
N924        N  0.32058945  0.94684702  0.08638449    -0.38600
N925        N  0.45787044  0.52442302  0.17601502    -0.38100
N926        N  0.28404608  0.52773733  0.06274566    -0.38100
C927        C  0.40618161  0.80287401  0.10646506    -0.04700
C928        C  0.40797458  0.77927544  0.07945161    -0.01900
C929        C  0.39202441  0.75047545  0.08590954     0.03100
C930        C  0.37444458  0.74460073  0.11966807    -0.04700
C931        C  0.37359811  0.76741586  0.14727033    -0.01800
C932        C  0.38912314  0.79637356  0.14093222     0.03100
C933        C  0.42566189  0.78457586  0.04451473     0.37800
C934        C  0.35680082  0.76093141  0.18252705     0.37800
C935        C  0.38577385  0.81952869  0.16989530     0.36200
C936        C  0.39223088  0.72767811  0.05644022     0.36200
N937        N  0.38298532  0.83774148  0.19321227    -0.38600
N938        N  0.39271041  0.71029345  0.03206887    -0.38600
N939        N  0.34345873  0.75566233  0.21059155    -0.38100
N940        N  0.43956898  0.78882396  0.01654946    -0.38100
C941        C  0.48322355  0.60941523  0.71911075    -0.04700
C942        C  0.00649382  0.63171480  0.72735419    -0.01900
C943        C  0.02725130  0.62893742  0.75932448     0.03100
C944        C  0.02519791  0.60221514  0.78223991    -0.04700
C945        C  0.49784827  0.58019693  0.77558007    -0.01800
C946        C  0.47674133  0.58493967  0.74442496     0.03100
C947        C  0.00945060  0.65878568  0.70321104     0.37800
C948        C  0.49380119  0.55196249  0.79752983     0.37800
C949        C  0.44929342  0.56364931  0.73750662     0.36200
C950        C  0.05037162  0.65354762  0.76871747     0.36200
N951        N  0.42719671  0.54675243  0.73225082    -0.38600
N952        N  0.06894293  0.67327740  0.77609261    -0.38600
N953        N  0.49071274  0.52915196  0.81426203    -0.38100
N954        N  0.01168677  0.68022761  0.68386137    -0.38100
C955        C  0.47973333  0.98380226  0.01489711    -0.04700
C956        C  0.00515654  0.99975032  0.03798980    -0.01900
C957        C  0.02482755  0.52486637  0.02301407     0.03100
C958        C  0.01978630  0.53408007  0.98589577    -0.04700
C959        C  0.49256660  0.51952217  0.96575290    -0.01800
C960        C  0.47489935  0.49368637  0.97974047     0.03100
C961        C  0.00931002  0.99193424  0.07724629     0.37800
C962        C  0.48715378  0.52836979  0.92709778     0.37800
C963        C  0.45161325  0.47692590  0.95608374     0.36200
C964        C  0.04831549  0.54179612  0.04617475     0.36200
N965        N  0.43304710  0.46356671  0.93728413    -0.38600
N966        N  0.06715057  0.55527739  0.06450095    -0.38600
N967        N  0.48207607  0.53469986  0.89616494    -0.38100
N968        N  0.01295843  0.98624027  0.10863872    -0.38100
C969        C  0.13570555  0.76765888  0.87189622    -0.04700
C970        C  0.11265189  0.76330214  0.90183239    -0.01900
C971        C  0.09679065  0.73435171  0.90807577     0.03100
C972        C  0.10518926  0.70857679  0.88612755    -0.04700
C973        C  0.12896467  0.71273093  0.85672842    -0.01800
C974        C  0.14338150  0.74208426  0.84925320     0.03100
C975        C  0.10695710  0.78756358  0.92870594     0.37800
C976        C  0.14032155  0.68661949  0.83484282     0.37800
C977        C  0.16667983  0.74557589  0.81835961     0.36200
C978        C  0.07161053  0.73130401  0.93717431     0.36200
N979        N  0.18544425  0.74785805  0.79384834    -0.38600
N980        N  0.05146513  0.72890993  0.96028150    -0.38600
N981        N  0.14953651  0.66595326  0.81730208    -0.38100
N982        N  0.10205781  0.80582191  0.95144351    -0.38100
C983        C  0.15738017  0.95792610  0.88911488    -0.04700
C984        C  0.16080976  0.98225254  0.91492663    -0.01900
C985        C  0.14229302  0.50987134  0.91070517     0.03100
C986        C  0.12255007  0.51488290  0.87831048    -0.04700
C987        C  0.12016647  0.99115457  0.85109431    -0.01800
C988        C  0.13617201  0.96250459  0.85733816     0.03100
C989        C  0.18364239  0.97935828  0.94625615     0.37800
C990        C  0.10092046  0.99628061  0.81721471     0.37800
C991        C  0.12896094  0.93751827  0.83157378     0.36200
C992        C  0.14172277  0.53210391  0.94081508     0.36200
N993        N  0.12294135  0.91768179  0.81107593    -0.38600
N994        N  0.14086795  0.54912637  0.96554773    -0.38600
N995        N  0.08570021  0.00039905  0.79012897    -0.38100
N996        N  0.20207297  0.97717299  0.97107196    -0.38100
C997        C  0.16413608  0.62917401  0.97801887    -0.04700
C998        C  0.15916893  0.64867657  0.00924224    -0.01900
C999        C  0.18421384  0.65205749  0.03683770     0.03100
C1000       C  0.21508096  0.63655438  0.03330790    -0.04700
C1001       C  0.22053890  0.61826183  0.00080301    -0.01800
C1002       C  0.19517260  0.61453019  0.97363331     0.03100
C1003       C  0.12854910  0.66636646  0.01243044     0.37800
C1004       C  0.25264413  0.60388229  0.99399469     0.37800
C1005       C  0.20090630  0.59509865  0.94140039     0.36200
C1006       C  0.17781896  0.67127184  0.06911554     0.36200
N1007       N  0.20556650  0.57956050  0.91575867    -0.38600
N1008       N  0.17273388  0.68663552  0.09481648    -0.38600
N1009       N  0.27812939  0.59226746  0.98829173    -0.38100
N1010       N  0.10441548  0.68085910  0.01507534    -0.38100
C1011       C  0.46501051  0.62809916  0.96512984    -0.04700
C1012       C  0.43314355  0.61504592  0.95866268    -0.01900
C1013       C  0.40775364  0.61730183  0.98589434     0.03100
C1014       C  0.41327822  0.63367455  0.01958892    -0.04700
C1015       C  0.44524972  0.64611400  0.02663749    -0.01800
C1016       C  0.47104253  0.64323227  0.99978753     0.03100
C1017       C  0.42613859  0.59949675  0.92370047     0.37800
C1018       C  0.45159012  0.66221339  0.06135907     0.37800
C1019       C  0.50415862  0.65480113  0.00902926     0.36200
C1020       C  0.37619710  0.60142387  0.97964946     0.36200
N1021       N  0.03056059  0.66312535  0.01526571    -0.38600
N1022       N  0.35128735  0.58842392  0.97445937    -0.38600
N1023       N  0.45664908  0.67502551  0.08907123    -0.38100
N1024       N  0.42044305  0.58711393  0.89585396    -0.38100
Fe1025     Fe  0.53512613  0.07141820  0.89520720     1.65800
Fe1026     Fe  0.60191647  0.11203853  0.87213292     1.73200
Fe1027     Fe  0.56063409  0.12686548  0.95121607     1.54400
O1028       O  0.51441254  0.14083507  0.93441841    -0.81100
O1029       O  0.63516928  0.12367311  0.91674699    -0.79400
O1030       O  0.99882108  0.09239434  0.92427219    -0.83600
O1031       O  0.55300799  0.05123272  0.94143572    -0.78400
O1032       O  0.58237415  0.16744517  0.92677827    -0.80200
O1033       O  0.61810769  0.06753455  0.87911928    -0.83000
C1034       C  0.53827429  0.05925923  0.97041384     0.97800
C1035       C  0.99456886  0.11891430  0.93931638     1.05200
O1036       O  0.56551521  0.10441620  0.90538460    -1.11900
O1037       O  0.57101250  0.10200167  0.82460053    -0.74400
O1038       O  0.51997258  0.09229197  0.84783093    -0.77900
O1039       O  0.53836194  0.08779509  0.98011800    -0.78600
C1040       C  0.53912056  0.09863184  0.82063229     0.96700
O1041       O  0.57010335  0.04432857  0.86704223    -0.76500
O1042       O  0.58731993  0.15666958  0.86642222    -0.81700
C1043       C  0.63333739  0.12041671  0.95244450     0.99300
C1044       C  0.58969887  0.17550648  0.89308426     1.05200
O1045       O  0.60632865  0.11327800  0.96888739    -0.77300
C1046       C  0.60111322  0.04309953  0.87495057     1.03500
Fe1047     Fe  0.97346071  0.43735403  0.10454984     1.65800
Fe1048     Fe  0.90887380  0.39377408  0.12598812     1.73200
Fe1049     Fe  0.94688584  0.38591222  0.04387234     1.54400
O1050       O  0.96677615  0.42747904  0.01825041    -0.81100
O1051       O  0.92685547  0.35011244  0.12688910    -0.79400
O1052       O  0.95369382  0.46093934  0.06166026    -0.83600
O1053       O  0.50762291  0.42118230  0.06969657    -0.78400
O1054       O  0.90047069  0.40023227  0.03002152    -0.80200
O1055       O  0.94082852  0.40231361  0.17323840    -0.83000
C1056       C  0.51072632  0.39535615  0.05236089     0.97800
C1057       C  0.96646636  0.45527023  0.03069129     1.05200
O1058       O  0.94353997  0.40483971  0.09198467    -1.11900
O1059       O  0.89029225  0.43783818  0.12398258    -0.74400
O1060       O  0.93781408  0.46077889  0.13711121    -0.77900
O1061       O  0.99393647  0.37176658  0.05623151    -0.78600
C1062       C  0.90644607  0.46241285  0.13045146     0.96700
O1063       O  0.99109040  0.41301970  0.14889374    -0.76500
O1064       O  0.87450410  0.38321733  0.08141190    -0.81700
C1065       C  0.92247406  0.33276582  0.09919479     0.99300
C1066       C  0.87468148  0.38997913  0.04627624     1.05200
O1067       O  0.92726814  0.34301962  0.06571437    -0.77300
C1068       C  0.97290611  0.40510465  0.17632700     1.03500
Fe1069     Fe  0.72188772  0.32029201  0.89348566     1.65800
Fe1070     Fe  0.65760666  0.36447397  0.87114822     1.73200
Fe1071     Fe  0.69234506  0.36985116  0.95499010     1.54400
O1072       O  0.71087291  0.32828148  0.98075652    -0.81100
O1073       O  0.67703301  0.40788703  0.87259848    -0.79400
O1074       O  0.70405152  0.29442182  0.93591850    -0.83600
O1075       O  0.76033949  0.34014442  0.92698066    -0.78400
O1076       O  0.64509723  0.35497726  0.96502323    -0.80200
O1077       O  0.68967595  0.35589525  0.82413071    -0.83000
C1078       C  0.76394809  0.36597538  0.94405639     0.97800
C1079       C  0.71180341  0.30029952  0.96899583     1.05200
O1080       O  0.69108240  0.35199562  0.90621907    -1.11900
O1081       O  0.63822998  0.32055950  0.87153421    -0.74400
O1082       O  0.68603188  0.29633128  0.86166696    -0.77900
O1083       O  0.73983911  0.38470876  0.94620620    -0.78600
C1084       C  0.65440110  0.29566964  0.86742858     0.96700
O1085       O  0.73941869  0.34546602  0.84907510    -0.76500
O1086       O  0.62226049  0.37582728  0.91460706    -0.81700
C1087       C  0.67056153  0.42441967  0.90054266     0.99300
C1088       C  0.62106311  0.36896819  0.94967569     1.05200
O1089       O  0.67378268  0.41321747  0.93381204    -0.77300
C1090       C  0.72166630  0.35310336  0.82129303     1.03500
Fe1091     Fe  0.78852454  0.18818067  0.09996203     1.65800
Fe1092     Fe  0.85209652  0.14430355  0.12531001     1.73200
Fe1093     Fe  0.81179290  0.13139502  0.04507196     1.54400
O1094       O  0.76479626  0.11944114  0.06174787    -0.81100
O1095       O  0.88579014  0.13185893  0.08122973    -0.79400
O1096       O  0.74819125  0.16754130  0.06960396    -0.83600
O1097       O  0.80920483  0.20665985  0.05389818    -0.78400
O1098       O  0.83104860  0.08963513  0.06940717    -0.80200
O1099       O  0.87135591  0.18821763  0.11978103    -0.83000
C1100       C  0.79482574  0.20013040  0.02409471     0.97800
C1101       C  0.74289293  0.14010153  0.05737938     1.05200
O1102       O  0.81702289  0.15365160  0.09108414    -1.11900
O1103       O  0.82017950  0.15502053  0.17204761    -0.74400
O1104       O  0.77073030  0.16895161  0.14773280    -0.77900
O1105       O  0.79228887  0.17144656  0.01522677    -0.78600
C1106       C  0.78856023  0.16065369  0.17530268     0.96700
O1107       O  0.82453231  0.21392665  0.12880450    -0.76500
O1108       O  0.83511244  0.10007191  0.12995120    -0.81700
C1109       C  0.88489883  0.13503400  0.04543512     0.99300
C1110       C  0.83773517  0.08138673  0.10316058     1.05200
O1111       O  0.85856455  0.14312061  0.02838350    -0.77300
C1112       C  0.85599395  0.21350409  0.12319940     1.03500
Fe1113     Fe  0.98003624  0.07787875  0.60799468     1.65800
Fe1114     Fe  0.90808605  0.11244725  0.62303244     1.73200
Fe1115     Fe  0.95029191  0.12612378  0.54458250     1.54400
O1116       O  0.49495012  0.14610622  0.56290316    -0.81100
O1117       O  0.87589232  0.11967381  0.57542652    -0.79400
O1118       O  0.51841297  0.10217808  0.58006660    -0.83600
O1119       O  0.97034082  0.05157875  0.56388451    -0.78400
O1120       O  0.92336527  0.16567991  0.56413302    -0.80200
O1121       O  0.89570832  0.06701996  0.62038937    -0.83000
C1122       C  0.97954886  0.05969962  0.53187252     0.97800
C1123       C  0.52010340  0.12852335  0.56351988     1.05200
O1124       O  0.94608002  0.10561390  0.59192716    -1.11900
O1125       O  0.93677339  0.10618723  0.67331051    -0.74400
O1126       O  0.98942657  0.10415830  0.65316940    -0.77900
O1127       O  0.97681453  0.08784534  0.52031751    -0.78600
C1128       C  0.96853384  0.10726779  0.67927369     0.96700
O1129       O  0.94542057  0.04876608  0.63649616    -0.76500
O1130       O  0.92027362  0.15780813  0.62510461    -0.81700
C1131       C  0.87943139  0.11387697  0.54037065     0.99300
C1132       C  0.91539778  0.17494776  0.59703206     1.05200
O1133       O  0.90736472  0.10629330  0.52696626    -0.77300
C1134       C  0.91441432  0.04453853  0.62876061     1.03500
Fe1135     Fe  0.53724960  0.43361680  0.38807324     1.65800
Fe1136     Fe  0.60945486  0.39882355  0.37357073     1.73200
Fe1137     Fe  0.56620031  0.38579575  0.45190684     1.54400
O1138       O  0.54061095  0.42474984  0.47563990    -0.81100
O1139       O  0.59886704  0.35285102  0.37145902    -0.79400
O1140       O  0.54550001  0.46100840  0.43154744    -0.83600
O1141       O  0.99662547  0.41004532  0.41724501    -0.78400
O1142       O  0.60974422  0.40482953  0.46935320    -0.80200
O1143       O  0.58076626  0.40576562  0.32261077    -0.83000
C1144       C  0.99530362  0.38371659  0.43389473     0.97800
C1145       C  0.53688484  0.45272627  0.46379661     1.05200
O1146       O  0.57114584  0.40591486  0.40466112    -1.11900
O1147       O  0.62144437  0.44441591  0.37719498    -0.74400
O1148       O  0.57229500  0.46263068  0.35973882    -0.77900
O1149       O  0.52243452  0.36632348  0.43524420    -0.78600
C1150       C  0.60298141  0.46708353  0.36885312     0.96700
O1151       O  0.52900496  0.40546171  0.34453035    -0.76500
O1152       O  0.64130866  0.39119703  0.42119527    -0.81700
C1153       C  0.59898822  0.33526108  0.39999244     0.99300
C1154       C  0.63771835  0.39705160  0.45620708     1.05200
O1155       O  0.59084615  0.34530781  0.43247723    -0.77300
C1156       C  0.54882752  0.40535468  0.31725952     1.03500
Fe1157     Fe  0.78671221  0.32695805  0.60792971     1.65800
Fe1158     Fe  0.85849516  0.36213797  0.62487482     1.73200
Fe1159     Fe  0.81566081  0.37736854  0.54663861     1.54400
O1160       O  0.79026102  0.33850958  0.52110630    -0.81100
O1161       O  0.84895747  0.40811575  0.62849727    -0.79400
O1162       O  0.79853955  0.30197124  0.56369871    -0.83600
O1163       O  0.74836927  0.35074293  0.57801516    -0.78400
O1164       O  0.85886506  0.35950646  0.52824538    -0.80200
O1165       O  0.82871161  0.35451868  0.67521588    -0.83000
C1166       C  0.74676406  0.37765132  0.56285423     0.97800
C1167       C  0.78847530  0.31010265  0.53212502     1.05200
O1168       O  0.82022334  0.35624883  0.59352609    -1.11900
O1169       O  0.87019838  0.31672924  0.61928973    -0.74400
O1170       O  0.82092497  0.29786910  0.63573380    -0.77900
O1171       O  0.77166334  0.39561598  0.56406152    -0.78600
C1172       C  0.85109422  0.29388254  0.62501488     0.96700
O1173       O  0.77661057  0.35235786  0.65341080    -0.76500
O1174       O  0.89064200  0.37026067  0.57747723    -0.81700
C1175       C  0.85058054  0.42593642  0.60027386     0.99300
C1176       C  0.88696957  0.36605061  0.54208038     1.05200
O1177       O  0.84145791  0.41729410  0.56747197    -0.77300
C1178       C  0.79665901  0.35391711  0.68056798     1.03500
Fe1179     Fe  0.73123331  0.18435178  0.38878291     1.65800
Fe1180     Fe  0.65828466  0.14874232  0.37619455     1.73200
Fe1181     Fe  0.70353963  0.13461247  0.45272359     1.54400
O1182       O  0.74609363  0.11563266  0.43224617    -0.81100
O1183       O  0.62808838  0.14209673  0.42510556    -0.79400
O1184       O  0.77054555  0.15943262  0.41607009    -0.83600
O1185       O  0.72421362  0.20955830  0.43394871    -0.78400
O1186       O  0.67630440  0.09462778  0.43448800    -0.80200
O1187       O  0.64606476  0.19398859  0.37953075    -0.83000
C1188       C  0.73465495  0.20091016  0.46524754     0.97800
C1189       C  0.77162650  0.13282272  0.43221813     1.05200
O1190       O  0.69755289  0.15575615  0.40578566    -1.11900
O1191       O  0.68540501  0.15494169  0.32452454    -0.74400
O1192       O  0.73879235  0.15953858  0.34178921    -0.77900
O1193       O  0.73123904  0.17274590  0.47660426    -0.78600
C1194       C  0.71694332  0.15531881  0.31690232     0.96700
O1195       O  0.69534028  0.21460443  0.36437962    -0.76500
O1196       O  0.66816135  0.10281896  0.37362020    -0.81700
C1197       C  0.63236244  0.14726792  0.46018841     0.99300
C1198       C  0.66676587  0.08542657  0.40214141     1.05200
O1199       O  0.66098416  0.15327283  0.47335889    -0.77300
C1200       C  0.66429659  0.21724982  0.37296481     1.03500
C1201       C  0.75221665  0.22553734  0.48604748    -0.04700
C1202       C  0.73797665  0.23738622  0.51868221    -0.01900
C1203       C  0.74683235  0.26731882  0.53061938     0.03100
C1204       C  0.77188219  0.28488053  0.51148680    -0.04700
C1205       C  0.78700612  0.27258927  0.47960114    -0.01800
C1206       C  0.77716446  0.24314577  0.46678255     0.03100
C1207       C  0.71375968  0.21903735  0.53957797     0.37800
C1208       C  0.81310720  0.29000234  0.46047051     0.37800
C1209       C  0.79255251  0.23114737  0.43318926     0.36200
C1210       C  0.72995724  0.28002677  0.56292319     0.36200
N1211       N  0.80484866  0.22203890  0.40618590    -0.38600
N1212       N  0.71608937  0.28971062  0.58864983    -0.38600
N1213       N  0.83383859  0.30399297  0.44520142    -0.38100
N1214       N  0.69460161  0.20434954  0.55639897    -0.38100
C1215       C  0.91509189  0.36985564  0.51460343    -0.04700
C1216       C  0.90903489  0.38449569  0.47944530    -0.01900
C1217       C  0.93427072  0.38636642  0.45188965     0.03100
C1218       C  0.96679043  0.37577260  0.45968186    -0.04700
C1219       C  0.97279186  0.36066828  0.49468932    -0.01800
C1220       C  0.94704888  0.35759529  0.52168902     0.03100
C1221       C  0.87715026  0.39908055  0.47167594     0.37800
C1222       C  0.00552804  0.34836320  0.50374178     0.37800
C1223       C  0.95350333  0.34164910  0.55677947     0.36200
C1224       C  0.92621660  0.39796619  0.41479663     0.36200
N1225       N  0.95866122  0.32898911  0.58479804    -0.38600
N1226       N  0.91959542  0.40678842  0.38509554    -0.38600
N1227       N  0.53076926  0.33922410  0.51398059    -0.38100
N1228       N  0.85194330  0.41094007  0.46504869    -0.38100
C1229       C  0.66570413  0.39320923  0.48381969    -0.04700
C1230       C  0.69824628  0.40402201  0.47584767    -0.01900
C1231       C  0.72401216  0.40109616  0.50274271     0.03100
C1232       C  0.71808172  0.38579629  0.53759610    -0.04700
C1233       C  0.68534573  0.37564865  0.54591602    -0.01800
C1234       C  0.65926310  0.37987594  0.51972029     0.03100
C1235       C  0.70520950  0.41913629  0.44034547     0.37800
C1236       C  0.67813795  0.36154857  0.58202200     0.37800
C1237       C  0.62577880  0.36992987  0.53015058     0.36200
C1238       C  0.75667021  0.41396319  0.49386710     0.36200
N1239       N  0.59919041  0.36200530  0.53889209    -0.38600
N1240       N  0.78242327  0.42485407  0.48678869    -0.38600
N1241       N  0.67231972  0.35033972  0.61079794    -0.38100
N1242       N  0.71115655  0.43119445  0.41212653    -0.38100
C1243       C  0.61799770  0.00031595  0.36949347    -0.04700
C1244       C  0.59934337  0.02497256  0.38464645    -0.01900
C1245       C  0.61582229  0.05142550  0.39888260     0.03100
C1246       C  0.65102994  0.05453883  0.39650348    -0.04700
C1247       C  0.66960691  0.03073310  0.37992497    -0.01800
C1248       C  0.65330709  0.00408380  0.36597594     0.03100
C1249       C  0.56305788  0.02369050  0.38539918     0.37800
C1250       C  0.70576100  0.03352656  0.37783104     0.37800
C1251       C  0.67400477  0.48008212  0.35264730     0.36200
C1252       C  0.59603262  0.07518646  0.41652676     0.36200
N1253       N  0.69055416  0.46183090  0.33817776    -0.38600
N1254       N  0.57892261  0.09309210  0.43074395    -0.38600
N1255       N  0.73462167  0.03563694  0.37667251    -0.38100
N1256       N  0.53409951  0.02324854  0.38561889    -0.38100
C1257       C  0.64840125  0.24791691  0.37894783    -0.04700
C1258       C  0.64663584  0.25960485  0.41570619    -0.01900
C1259       C  0.63022833  0.28772068  0.42315927     0.03100
C1260       C  0.61200260  0.30301489  0.39470775    -0.04700
C1261       C  0.60914939  0.28836581  0.35942706    -0.01800
C1262       C  0.62805971  0.26159804  0.35125094     0.03100
C1263       C  0.65776683  0.24095060  0.44706822     0.37800
C1264       C  0.58457348  0.29922969  0.33261050     0.37800
C1265       C  0.62455614  0.24689623  0.31520081     0.36200
C1266       C  0.63192964  0.30003057  0.46064174     0.36200
N1267       N  0.62120915  0.23521933  0.28645950    -0.38600
N1268       N  0.63367284  0.30881759  0.49099566    -0.38600
N1269       N  0.56435742  0.30749027  0.31170638    -0.38100
N1270       N  0.66453978  0.22630187  0.47312376    -0.38100
C1271       C  0.89943788  0.01282511  0.62626340    -0.04700
C1272       C  0.86505898  0.00785083  0.63467936    -0.01900
C1273       C  0.84878629  0.47982768  0.62577048     0.03100
C1274       C  0.86636063  0.45671334  0.60647470    -0.04700
C1275       C  0.90110189  0.46072035  0.60020476    -0.01800
C1276       C  0.91777737  0.48788598  0.61176722     0.03100
C1277       C  0.84670613  0.03052476  0.65610847     0.37800
C1278       C  0.92058578  0.43694873  0.58225611     0.37800
C1279       C  0.95368326  0.49048910  0.60620080     0.36200
C1280       C  0.81358316  0.47523273  0.63423743     0.36200
N1281       N  0.98237496  0.49184480  0.60203436    -0.38600
N1282       N  0.78550411  0.47146558  0.64086978    -0.38600
N1283       N  0.93817017  0.41936187  0.56820558    -0.38100
N1284       N  0.83201961  0.04847738  0.67335785    -0.38100
C1285       C  0.86486349  0.26255463  0.61714358    -0.04700
C1286       C  0.88305576  0.25769682  0.58364724    -0.01900
C1287       C  0.90046026  0.22985173  0.57761227     0.03100
C1288       C  0.89777216  0.20516609  0.60351781    -0.04700
C1289       C  0.87685798  0.20918590  0.63564343    -0.01800
C1290       C  0.86153221  0.23798671  0.64284375     0.03100
C1291       C  0.88255645  0.28052651  0.55378424     0.37800
C1292       C  0.86983623  0.18367985  0.66121426     0.37800
C1293       C  0.84299508  0.24253669  0.67723404     0.36200
C1294       C  0.92164267  0.22726998  0.54484116     0.36200
N1295       N  0.82833616  0.24622394  0.70472228    -0.38600
N1296       N  0.93852558  0.22564321  0.51866593    -0.38600
N1297       N  0.86404482  0.16344321  0.68165106    -0.38100
N1298       N  0.88239139  0.29742117  0.52858619    -0.38100
C1299       C  0.99613671  0.03496681  0.51065594    -0.04700
C1300       C  0.97819024  0.01879043  0.48330017    -0.01900
C1301       C  0.49014197  0.49030161  0.47043958     0.03100
C1302       C  0.51976050  0.47691914  0.48532955    -0.04700
C1303       C  0.53653986  0.49163590  0.51464519    -0.01800
C1304       C  0.52525419  0.02117340  0.52822046     0.03100
C1305       C  0.94542369  0.02964308  0.47173105     0.37800
C1306       C  0.56694833  0.47812987  0.52964255     0.37800
C1307       C  0.54208223  0.03457086  0.56016078     0.36200
C1308       C  0.47292324  0.47615698  0.43926570     0.36200
N1309       N  0.55590522  0.04440099  0.58588529    -0.38600
N1310       N  0.45873116  0.46586148  0.41407323    -0.38600
N1311       N  0.59112813  0.46714424  0.54145702    -0.38100
N1312       N  0.91906294  0.03799793  0.46301917    -0.38100
C1313       C  0.85162305  0.11799905  0.51281838    -0.04700
C1314       C  0.82035742  0.10362647  0.51822776    -0.01900
C1315       C  0.79475451  0.10697615  0.49116289     0.03100
C1316       C  0.80036737  0.12440544  0.45753546    -0.04700
C1317       C  0.83259843  0.13683731  0.45113121    -0.01800
C1318       C  0.85764067  0.13446958  0.47887512     0.03100
C1319       C  0.81485784  0.08450510  0.55122230     0.37800
C1320       C  0.84060874  0.15105495  0.41531533     0.37800
C1321       C  0.88946400  0.14998287  0.47257798     0.36200
C1322       C  0.76254173  0.09265504  0.49894400     0.36200
N1323       N  0.91469860  0.16248661  0.46724331    -0.38600
N1324       N  0.73698472  0.08102661  0.50526962    -0.38600
N1325       N  0.84725207  0.16200579  0.38661427    -0.38100
N1326       N  0.81059488  0.06908040  0.57740404    -0.38100
C1327       C  0.54963785  0.13646973  0.53910895    -0.04700
C1328       C  0.58230548  0.12732357  0.54910139    -0.01900
C1329       C  0.60905584  0.13067322  0.52338993     0.03100
C1330       C  0.60391982  0.14444404  0.48753685    -0.04700
C1331       C  0.57157836  0.15479343  0.47816897    -0.01800
C1332       C  0.54459364  0.15025044  0.50324908     0.03100
C1333       C  0.58861237  0.11453921  0.58604284     0.37800
C1334       C  0.56582370  0.17002481  0.44244748     0.37800
C1335       C  0.51125540  0.15817437  0.49057605     0.36200
C1336       C  0.64156341  0.11836263  0.53362041     0.36200
N1337       N  0.98718933  0.17736375  0.48475248    -0.38600
N1338       N  0.66738763  0.10845652  0.54191639    -0.38600
N1339       N  0.56116582  0.18210694  0.41394824    -0.38100
N1340       N  0.59376217  0.10440089  0.61551162    -0.38100
C1341       C  0.73017250  0.15415820  0.27786474    -0.04700
C1342       C  0.75022146  0.12899215  0.26638135    -0.01900
C1343       C  0.77028583  0.13123779  0.23367966     0.03100
C1344       C  0.77085658  0.15882788  0.21222194    -0.06300
C1345       C  0.75070909  0.18396530  0.22372837    -0.01800
C1346       C  0.73056579  0.18159219  0.25615082     0.03100
C1347       C  0.75035533  0.10073704  0.28846141     0.37800
C1348       C  0.75171752  0.21301306  0.20301095     0.37800
C1349       C  0.71178394  0.20828690  0.26840965     0.36200
C1350       C  0.78985473  0.10494758  0.22172430     0.36200
N1351       N  0.69717919  0.22985345  0.27800635    -0.38600
N1352       N  0.80550583  0.08401316  0.21207626    -0.38600
N1353       N  0.75251765  0.23620307  0.18659208    -0.38100
N1354       N  0.75047833  0.07806539  0.30589830    -0.38100
C1355       C  0.73942941  0.35578041  0.78437368    -0.04700
C1356       C  0.73128243  0.33515228  0.75547478    -0.01900
C1357       C  0.75216507  0.33264925  0.72375838     0.03100
C1358       C  0.78024902  0.35269233  0.71852956    -0.04700
C1359       C  0.78833007  0.37360183  0.74729435    -0.01800
C1360       C  0.76828048  0.37489517  0.78016630     0.03100
C1361       C  0.70134946  0.31611954  0.75836497     0.37800
C1362       C  0.81681320  0.39418748  0.74282793     0.37800
C1363       C  0.77651475  0.39689559  0.80911814     0.36200
C1364       C  0.74522921  0.30835318  0.69698368     0.36200
N1365       N  0.78290152  0.41462066  0.83215361    -0.38600
N1366       N  0.73984091  0.28888801  0.67574889    -0.38600
N1367       N  0.83962792  0.41053719  0.73925967    -0.38100
N1368       N  0.67717136  0.30135667  0.76019907    -0.38100
C1369       C  0.77495951  0.22605686  0.00655689    -0.04700
C1370       C  0.77985610  0.25705229  0.01927836    -0.01900
C1371       C  0.75574922  0.28023723  0.01280438     0.03100
C1372       C  0.72788857  0.27415288  0.98999316    -0.04700
C1373       C  0.72242856  0.24321024  0.97795817    -0.01800
C1374       C  0.74641043  0.21983943  0.98461579     0.03100
C1375       C  0.81070370  0.26638576  0.03748121     0.37800
C1376       C  0.69156562  0.23490466  0.95903399     0.37800
C1377       C  0.74262027  0.19027254  0.96635083     0.36200
C1378       C  0.76003038  0.31046373  0.02960719     0.36200
N1379       N  0.73983454  0.16719957  0.95039772    -0.38600
N1380       N  0.76336895  0.33440654  0.04350521    -0.38600
N1381       N  0.66708634  0.22767262  0.94427928    -0.38100
N1382       N  0.83490967  0.27484685  0.05179415    -0.38100
C1383       C  0.99037714  0.40220281  0.21318687    -0.04700
C1384       C  0.52082630  0.38784502  0.21673875    -0.01900
C1385       C  0.54092099  0.38835784  0.24950093     0.03100
C1386       C  0.53226534  0.40761744  0.27960790    -0.04700
C1387       C  0.00131703  0.42388731  0.27491796    -0.01800
C1388       C  0.98096092  0.42150621  0.24283207     0.03100
C1389       C  0.53008585  0.36805759  0.18593186     0.37800
C1390       C  0.99241238  0.44644827  0.30311060     0.37800
C1391       C  0.95092369  0.44014577  0.23976192     0.36200
C1392       C  0.57016106  0.36881730  0.25225096     0.36200
N1393       N  0.92695153  0.45495723  0.23746739    -0.38600
N1394       N  0.59364114  0.35331823  0.25413192    -0.38600
N1395       N  0.98540488  0.46439828  0.32558725    -0.38100
N1396       N  0.53739947  0.35239783  0.16119048    -0.38100
C1397       C  0.53919835  0.39036005  0.02588025    -0.04700
C1398       C  0.57260400  0.39270852  0.03779243    -0.01900
C1399       C  0.59911521  0.38694877  0.01254758     0.03100
C1400       C  0.59259826  0.37854607  0.97470191    -0.04700
C1401       C  0.55911359  0.37856710  0.96219143    -0.01800
C1402       C  0.53261725  0.38377268  0.98768290     0.03100
C1403       C  0.57967289  0.40014340  0.07645899     0.37800
C1404       C  0.55168622  0.37320207  0.92311439     0.37800
C1405       C  0.49841854  0.38266251  0.97408942     0.36200
C1406       C  0.63323723  0.39096074  0.02562465     0.36200
N1407       N  0.97605038  0.36462777  0.96994870    -0.38600
N1408       N  0.66039213  0.39424712  0.03614419    -0.38600
N1409       N  0.54575876  0.36927641  0.89185509    -0.38100
N1410       N  0.58516157  0.40604537  0.10734424    -0.38100
C1411       C  0.79518820  0.37330184  0.96614420    -0.04700
C1412       C  0.79961320  0.40300184  0.98270465    -0.01900
C1413       C  0.82426219  0.40782541  0.01046679     0.03100
C1414       C  0.84561194  0.38359474  0.02149530    -0.04700
C1415       C  0.84448104  0.35562144  0.00125135    -0.01800
C1416       C  0.81896973  0.35003114  0.97477226     0.03100
C1417       C  0.78009010  0.42939487  0.97021947     0.37800
C1418       C  0.87147037  0.33352406  0.00455256     0.37800
C1419       C  0.81798296  0.32018410  0.95643055     0.36200
C1420       C  0.82940430  0.43857928  0.02548066     0.36200
N1421       N  0.81748437  0.29628988  0.94205006    -0.38600
N1422       N  0.83365692  0.46339203  0.03646689    -0.38600
N1423       N  0.89293668  0.31569530  0.00496394    -0.38100
N1424       N  0.76475628  0.45056022  0.96023322    -0.38100
C1425       C  0.85307469  0.05066961  0.11199543    -0.04700
C1426       C  0.83707512  0.02267409  0.10292224    -0.01900
C1427       C  0.85137444  0.99400367  0.11380457     0.03100
C1428       C  0.88417518  0.99275691  0.12972576    -0.04700
C1429       C  0.89942037  0.02111735  0.14013656    -0.01800
C1430       C  0.88372997  0.04964913  0.13198035     0.03100
C1431       C  0.80569259  0.02333751  0.08257829     0.37800
C1432       C  0.93099008  0.02140555  0.16019681     0.37800
C1433       C  0.89999992  0.07819154  0.14345927     0.36200
C1434       C  0.83212439  0.46805555  0.12300124     0.36200
N1435       N  0.91294412  0.10081392  0.15297594    -0.38600
N1436       N  0.81464085  0.44675312  0.12620498    -0.38600
N1437       N  0.95614801  0.02186924  0.17619722    -0.38100
N1438       N  0.78088928  0.02381541  0.06591134    -0.38100
C1439       C  0.90792767  0.30120938  0.10696997    -0.04700
C1440       C  0.91490770  0.27585778  0.08369603    -0.01900
C1441       C  0.89741636  0.24756421  0.08854816     0.03100
C1442       C  0.87520322  0.24308292  0.11912264    -0.04700
C1443       C  0.87001225  0.26759676  0.14404040    -0.01800
C1444       C  0.88519194  0.29671865  0.13741166     0.03100
C1445       C  0.94031297  0.27861575  0.05488386     0.37800
C1446       C  0.84892154  0.26290005  0.17667816     0.37800
C1447       C  0.87580066  0.32220065  0.16143080     0.36200
C1448       C  0.89924810  0.22470700  0.05923239     0.36200
N1449       N  0.86817954  0.34239706  0.18064615    -0.38600
N1450       N  0.90011057  0.20732887  0.03486085    -0.38600
N1451       N  0.83228714  0.25914254  0.20282129    -0.38100
N1452       N  0.96066226  0.28078503  0.03197272    -0.38100
C1453       C  0.98323899  0.10865754  0.71750637    -0.04700
C1454       C  0.50631661  0.13066662  0.72799964    -0.01900
C1455       C  0.52609925  0.12736227  0.76055378     0.03100
C1456       C  0.52240295  0.10083686  0.78352268    -0.04700
C1457       C  0.00011302  0.07915971  0.77295889    -0.01800
C1458       C  0.97857415  0.08330502  0.74205581     0.03100
C1459       C  0.51153436  0.15712204  0.70331974     0.37800
C1460       C  0.99868505  0.05012006  0.79370670     0.37800
C1461       C  0.95262152  0.06061536  0.73456112     0.36200
C1462       C  0.54980076  0.15134088  0.77056943     0.36200
N1463       N  0.93168174  0.04259916  0.72884855    -0.38600
N1464       N  0.56875949  0.17059032  0.77850581    -0.38600
N1465       N  0.99791652  0.02665982  0.80940250    -0.38100
N1466       N  0.51571613  0.17797376  0.68341860    -0.38100
C1467       C  0.98618883  0.48091488  0.01390474    -0.04700
C1468       C  0.50131570  0.50174516  0.04049371    -0.01900
C1469       C  0.51835105  0.02762158  0.02493130     0.03100
C1470       C  0.51582352  0.03555785  0.98708434    -0.04700
C1471       C  0.99891550  0.01536732  0.96223858    -0.01800
C1472       C  0.98109339  0.98967081  0.97652006     0.03100
C1473       C  0.50697380  0.49260818  0.07911201     0.37800
C1474       C  0.99415703  0.02360587  0.92326732     0.37800
C1475       C  0.95839953  0.97236650  0.95274757     0.36200
C1476       C  0.54065805  0.04501809  0.04901433     0.36200
N1477       N  0.94018071  0.95865469  0.93390484    -0.38600
N1478       N  0.55855928  0.05882683  0.06812580    -0.38600
N1479       N  0.98971159  0.02966772  0.89213119    -0.38100
N1480       N  0.51192117  0.48588231  0.10998354    -0.38100
C1481       C  0.63591588  0.26536717  0.87119432    -0.04700
C1482       C  0.60876427  0.26217446  0.89687129    -0.01900
C1483       C  0.59279603  0.23327890  0.90280199     0.03100
C1484       C  0.60429747  0.20672394  0.88445347    -0.04700
C1485       C  0.63116015  0.20977041  0.85851578    -0.01800
C1486       C  0.64647243  0.23884811  0.85164444     0.03100
C1487       C  0.59805566  0.28781509  0.91965600     0.37800
C1488       C  0.64443424  0.18276623  0.83976245     0.37800
C1489       C  0.67332158  0.24107849  0.82442451     0.36200
C1490       C  0.56419873  0.23100970  0.92777217     0.36200
N1491       N  0.69479517  0.24235079  0.80275006    -0.38600
N1492       N  0.54134168  0.22927369  0.94756419    -0.38600
N1493       N  0.65503922  0.16133575  0.82470495    -0.38100
N1494       N  0.58856295  0.30731591  0.93877713    -0.38100
C1495       C  0.65476740  0.45560393  0.89342339    -0.04700
C1496       C  0.65406389  0.47840736  0.92155962    -0.01900
C1497       C  0.63708880  0.00799076  0.91403026     0.03100
C1498       C  0.61800444  0.01285607  0.88116359    -0.04700
C1499       C  0.62013197  0.49000112  0.85359525    -0.01800
C1500       C  0.63729840  0.46178102  0.85919080     0.03100
C1501       C  0.67367106  0.47461523  0.95536918     0.37800
C1502       C  0.60398196  0.49659551  0.81809987     0.37800
C1503       C  0.63570408  0.43910462  0.82948574     0.36200
C1504       C  0.63491678  0.02973842  0.94458591     0.36200
N1505       N  0.63429686  0.42116548  0.80569745    -0.38600
N1506       N  0.63262915  0.04636662  0.96960385    -0.38600
N1507       N  0.59116911  0.50185439  0.78976874    -0.38100
N1508       N  0.68953078  0.47189789  0.98224098    -0.38100
C1509       C  0.66250292  0.12665868  0.97713983    -0.04700
C1510       C  0.65894979  0.14785233  0.00686830    -0.01900
C1511       C  0.68391544  0.15054506  0.03458482     0.03100
C1512       C  0.71398032  0.13364676  0.03168773    -0.04700
C1513       C  0.71794934  0.11320790  0.00080005    -0.01800
C1514       C  0.69213143  0.10948963  0.97417104     0.03100
C1515       C  0.63003099  0.16803393  0.00811470     0.37800
C1516       C  0.74937205  0.09739985  0.99431944     0.37800
C1517       C  0.69625816  0.08808869  0.94349368     0.36200
C1518       C  0.67803678  0.17016625  0.06660181     0.36200
N1519       N  0.69974480  0.07100783  0.91908224    -0.38600
N1520       N  0.67313540  0.18560463  0.09227846    -0.38600
N1521       N  0.77444503  0.08495997  0.98877063    -0.38100
N1522       N  0.60727844  0.18447889  0.00888449    -0.38100
C1523       C  0.96618363  0.12349031  0.96640335    -0.04700
C1524       C  0.93515732  0.10825054  0.96124758    -0.01900
C1525       C  0.90978868  0.11015886  0.98866237     0.03100
C1526       C  0.91442711  0.12813246  0.02126584    -0.04700
C1527       C  0.94587670  0.14181004  0.02771736    -0.01800
C1528       C  0.97149376  0.13980321  0.00047635     0.03100
C1529       C  0.92877427  0.09104869  0.92731896     0.37800
C1530       C  0.95192352  0.15807812  0.06239581     0.37800
C1531       C  0.00358561  0.15402804  0.00860925     0.36200
C1532       C  0.87916625  0.09237364  0.98396419     0.36200
N1533       N  0.52615729  0.17232613  0.00952036    -0.38600
N1534       N  0.85494561  0.07791729  0.98036836    -0.38600
N1535       N  0.95677318  0.17092653  0.09013084    -0.38100
N1536       N  0.92355953  0.07734318  0.90027897    -0.38100
Fe1537     Fe  0.53593121  0.57185704  0.89617737     1.65800
Fe1538     Fe  0.60391020  0.61138105  0.87401318     1.73200
Fe1539     Fe  0.56228249  0.62674658  0.95287458     1.54400
O1540       O  0.51660276  0.64182266  0.93588686    -0.81100
O1541       O  0.63705840  0.62201472  0.91932690    -0.79400
O1542       O  0.99802534  0.59361690  0.92344059    -0.83600
O1543       O  0.55212564  0.55098777  0.94269040    -0.78400
O1544       O  0.58493745  0.66713865  0.92889693    -0.80200
O1545       O  0.61904051  0.56652202  0.88079329    -0.83000
C1546       C  0.53782386  0.55955014  0.97173838     0.97800
C1547       C  0.99392516  0.62049311  0.93753979     1.05200
O1548       O  0.56704842  0.60426713  0.90692364    -1.11900
O1549       O  0.57300604  0.60225128  0.82568041    -0.74400
O1550       O  0.52182699  0.59310898  0.84856949    -0.77900
O1551       O  0.53882589  0.58808805  0.98137541    -0.78600
C1552       C  0.54105084  0.59913754  0.82136174     0.96700
O1553       O  0.57073113  0.54368800  0.86881868    -0.76500
O1554       O  0.59089389  0.65652435  0.86850772    -0.81700
C1555       C  0.63478015  0.61877955  0.95503414     0.99300
C1556       C  0.59271164  0.67529284  0.89535481     1.05200
O1557       O  0.60745492  0.61215564  0.97108253    -0.77300
C1558       C  0.60181566  0.54225479  0.87649583     1.03500
Fe1559     Fe  0.97122850  0.93923049  0.10438940     1.65800
Fe1560     Fe  0.90808084  0.89389586  0.12704372     1.73200
Fe1561     Fe  0.94621279  0.88620465  0.04489154     1.54400
O1562       O  0.96518684  0.92793975  0.01858074    -0.81100
O1563       O  0.92722915  0.85061978  0.12812255    -0.79400
O1564       O  0.95045259  0.96148116  0.06102633    -0.83600
O1565       O  0.50723711  0.92085952  0.06844257    -0.78400
O1566       O  0.89936215  0.89920184  0.03090646    -0.80200
O1567       O  0.93982234  0.90340482  0.17374271    -0.83000
C1568       C  0.51078427  0.89503691  0.05130848     0.97800
C1569       C  0.96410559  0.95585540  0.03056368     1.05200
O1570       O  0.94226018  0.90568841  0.09268976    -1.11900
O1571       O  0.88826442  0.93744545  0.12559567    -0.74400
O1572       O  0.93515723  0.96252730  0.13643773    -0.77900
O1573       O  0.99372200  0.87341800  0.05765502    -0.78600
C1574       C  0.90349176  0.96264342  0.13140302     0.96700
O1575       O  0.98958200  0.91611720  0.14922353    -0.76500
O1576       O  0.87374581  0.88259405  0.08280560    -0.81700
C1577       C  0.92288957  0.83297637  0.10072131     0.99300
C1578       C  0.87362104  0.88929281  0.04766009     1.05200
O1579       O  0.92748050  0.84302170  0.06709180    -0.77300
C1580       C  0.97170173  0.90737761  0.17656054     1.03500
Fe1581     Fe  0.72184623  0.82180151  0.89319309     1.65800
Fe1582     Fe  0.65753111  0.86566226  0.87039559     1.73200
Fe1583     Fe  0.69252210  0.87178737  0.95442727     1.54400
O1584       O  0.71084053  0.83029367  0.98053217    -0.81100
O1585       O  0.67634224  0.90939583  0.87160223    -0.79400
O1586       O  0.70398791  0.79625261  0.93595971    -0.83600
O1587       O  0.76012148  0.84180621  0.92641659    -0.78400
O1588       O  0.64518836  0.85706422  0.96441978    -0.80200
O1589       O  0.68984072  0.85699945  0.82350913    -0.83000
C1590       C  0.76398005  0.86745089  0.94377775     0.97800
C1591       C  0.71146057  0.80219586  0.96909182     1.05200
O1592       O  0.69119984  0.85373709  0.90562530    -1.11900
O1593       O  0.63823889  0.82151345  0.87134979    -0.74400
O1594       O  0.68613562  0.79766236  0.86154203    -0.77900
O1595       O  0.74023191  0.88660789  0.94598654    -0.78600
C1596       C  0.65456679  0.79667888  0.86749259     0.96700
O1597       O  0.73956332  0.84642122  0.84840520    -0.76500
O1598       O  0.62213571  0.87703060  0.91349790    -0.81700
C1599       C  0.66994961  0.92578064  0.89978479     0.99300
C1600       C  0.62101476  0.87053304  0.94861807     1.05200
O1601       O  0.67390272  0.91488158  0.93305862    -0.77300
C1602       C  0.72182301  0.85396072  0.82056750     1.03500
Fe1603     Fe  0.78916103  0.68694305  0.10432758     1.65800
Fe1604     Fe  0.85469228  0.64428534  0.12590020     1.73200
Fe1605     Fe  0.81275883  0.63291495  0.04647397     1.54400
O1606       O  0.76688886  0.61874328  0.06415801    -0.81100
O1607       O  0.88705005  0.63382025  0.07975701    -0.79400
O1608       O  0.74872451  0.66587941  0.07420908    -0.83600
O1609       O  0.80775711  0.70777321  0.05871674    -0.78400
O1610       O  0.83417164  0.59100857  0.06852376    -0.80200
O1611       O  0.87256758  0.68857161  0.12126441    -0.83000
C1612       C  0.79277825  0.70181125  0.02920330     0.97800
C1613       C  0.74407584  0.63862611  0.06100343     1.05200
O1614       O  0.81848181  0.65369710  0.09320615    -1.11900
O1615       O  0.82382909  0.65326465  0.17435501    -0.74400
O1616       O  0.77338739  0.66528050  0.15129323    -0.77900
O1617       O  0.79100885  0.67330627  0.01919943    -0.78600
C1618       C  0.79205320  0.65784539  0.17845731     0.96700
O1619       O  0.82541503  0.71297894  0.13293292    -0.76500
O1620       O  0.83939311  0.59955514  0.12953291    -0.81700
C1621       C  0.88506242  0.63824825  0.04420621     0.99300
C1622       C  0.84161762  0.58181130  0.10178785     1.05200
O1623       O  0.85828038  0.64713321  0.02887784    -0.77300
C1624       C  0.85672165  0.71342074  0.12591024     1.03500
Fe1625     Fe  0.97988170  0.57806414  0.60908180     1.65800
Fe1626     Fe  0.90733759  0.61180811  0.62466002     1.73200
Fe1627     Fe  0.94889958  0.62582922  0.54587490     1.54400
O1628       O  0.49318415  0.64485845  0.56133068    -0.81100
O1629       O  0.87460604  0.61888485  0.57752192    -0.79400
O1630       O  0.51737777  0.60142107  0.57933814    -0.83600
O1631       O  0.97063579  0.55152250  0.56504483    -0.78400
O1632       O  0.92206093  0.66541891  0.56606041    -0.80200
O1633       O  0.89573562  0.56624975  0.62178370    -0.83000
C1634       C  0.97878863  0.55974985  0.53267813     0.97800
C1635       C  0.51852826  0.62755380  0.56216889     1.05200
O1636       O  0.94549600  0.60553900  0.59336284    -1.11900
O1637       O  0.93632957  0.60566019  0.67466469    -0.74400
O1638       O  0.98895079  0.60452071  0.65421564    -0.77900
O1639       O  0.97530722  0.58780793  0.52114532    -0.78600
C1640       C  0.96808492  0.60713916  0.68043284     0.96700
O1641       O  0.94570082  0.54845324  0.63766177    -0.76500
O1642       O  0.91852815  0.65741758  0.62701908    -0.81700
C1643       C  0.87802884  0.61276350  0.54257164     0.99300
C1644       C  0.91422756  0.67480633  0.59901980     1.05200
O1645       O  0.90598894  0.60513596  0.52938766    -0.77300
C1646       C  0.91465668  0.54395735  0.63025172     1.03500
Fe1647     Fe  0.53691011  0.93606693  0.38615529     1.65800
Fe1648     Fe  0.60848875  0.90045391  0.36908477     1.73200
Fe1649     Fe  0.56725909  0.88823444  0.44872509     1.54400
O1650       O  0.54201112  0.92710078  0.47336942    -0.81100
O1651       O  0.59788107  0.85445116  0.36738197    -0.79400
O1652       O  0.54724336  0.96316160  0.42940566    -0.83600
O1653       O  0.99905813  0.91009235  0.41804721    -0.78400
O1654       O  0.61096361  0.90800824  0.46417356    -0.80200
O1655       O  0.57846453  0.90722269  0.31920556    -0.83000
C1656       C  0.99818723  0.88377484  0.43491391     0.97800
C1657       C  0.53856349  0.95512738  0.46165453     1.05200
O1658       O  0.57085703  0.90784439  0.40112902    -1.11900
O1659       O  0.62075505  0.94584782  0.37215815    -0.74400
O1660       O  0.57140201  0.96488872  0.35679356    -0.77900
O1661       O  0.52324366  0.86852469  0.43361921    -0.78600
C1662       C  0.60239108  0.96879492  0.36493023     0.96700
O1663       O  0.52700154  0.90863971  0.34234319    -0.76500
O1664       O  0.64153032  0.89305176  0.41591250    -0.81700
C1665       C  0.59909327  0.83722924  0.39617548     0.99300
C1666       C  0.63860316  0.89960933  0.45083041     1.05200
O1667       O  0.59164294  0.84770622  0.42870038    -0.77300
C1668       C  0.54641106  0.90736426  0.31467734     1.03500
Fe1669     Fe  0.78630544  0.82830506  0.60434718     1.65800
Fe1670     Fe  0.85786268  0.86305487  0.62319255     1.73200
Fe1671     Fe  0.81746299  0.87775260  0.54312213     1.54400
O1672       O  0.79196462  0.83919509  0.51733907    -0.81100
O1673       O  0.84853849  0.90920222  0.62563611    -0.79400
O1674       O  0.79970060  0.80330888  0.56060118    -0.83600
O1675       O  0.74904925  0.85267483  0.57298016    -0.78400
O1676       O  0.86091093  0.85873376  0.52709023    -0.80200
O1677       O  0.82673869  0.85608024  0.67266306    -0.83000
C1678       C  0.74801950  0.87936246  0.55704773     0.97800
C1679       C  0.78969663  0.81102251  0.52891084     1.05200
O1680       O  0.82024377  0.85740602  0.59083851    -1.11900
O1681       O  0.86926181  0.81740336  0.61863955    -0.74400
O1682       O  0.81940843  0.79880988  0.63339155    -0.77900
O1683       O  0.77322340  0.89700138  0.55791201    -0.78600
C1684       C  0.84992956  0.79465415  0.62407726     0.96700
O1685       O  0.77495322  0.85341234  0.64995785    -0.76500
O1686       O  0.89155497  0.87042926  0.57688401    -0.81700
C1687       C  0.85087001  0.92671644  0.59715239     0.99300
C1688       C  0.88871140  0.86543423  0.54155924     1.05200
O1689       O  0.84303655  0.91761189  0.56414206    -0.77300
C1690       C  0.79460830  0.85530764  0.67751472     1.03500
Fe1691     Fe  0.73051271  0.68472848  0.39024829     1.65800
Fe1692     Fe  0.65761903  0.64968344  0.37580046     1.73200
Fe1693     Fe  0.70110917  0.63568233  0.45357640     1.54400
O1694       O  0.74396662  0.61591723  0.43514252    -0.81100
O1695       O  0.62644311  0.64319678  0.42394184    -0.79400
O1696       O  0.76891763  0.65956949  0.41892802    -0.83600
O1697       O  0.72208195  0.71017885  0.43480274    -0.78400
O1698       O  0.67373682  0.59575581  0.43474477    -0.80200
O1699       O  0.64585466  0.69515015  0.37891509    -0.83000
C1700       C  0.73262305  0.70174332  0.46607890     0.97800
C1701       C  0.76961891  0.63299452  0.43522484     1.05200
O1702       O  0.69644405  0.65628574  0.40622604    -1.11900
O1703       O  0.68621698  0.65535652  0.32495970    -0.74400
O1704       O  0.73917710  0.65949121  0.34406040    -0.77900
O1705       O  0.72893151  0.67369651  0.47774175    -0.78600
C1706       C  0.71800437  0.65509975  0.31854139     0.96700
O1707       O  0.69551828  0.71510765  0.36438096    -0.76500
O1708       O  0.66666071  0.60359571  0.37358895    -0.81700
C1709       C  0.63023842  0.64870414  0.45899052     0.99300
C1710       C  0.66463657  0.58638175  0.40224097     1.05200
O1711       O  0.65855685  0.65548458  0.47227202    -0.77300
C1712       C  0.66441653  0.71821055  0.37246450     1.03500
C1713       C  0.75096231  0.72629081  0.48610756    -0.04700
C1714       C  0.73673848  0.73957754  0.51790106    -0.01900
C1715       C  0.74667422  0.76947893  0.52881393     0.03100
C1716       C  0.77230137  0.78583515  0.50911738    -0.04700
C1717       C  0.78710562  0.77229269  0.47781995    -0.01800
C1718       C  0.77659171  0.74265557  0.46634989     0.03100
C1719       C  0.71127253  0.72282490  0.53888096     0.37800
C1720       C  0.81347382  0.78867159  0.45782215     0.37800
C1721       C  0.79197946  0.72924873  0.43357061     0.36200
C1722       C  0.73039345  0.78329644  0.56079595     0.36200
N1723       N  0.80448943  0.71916186  0.40721524    -0.38600
N1724       N  0.71694297  0.79370641  0.58636794    -0.38600
N1725       N  0.83436169  0.80182776  0.44176506    -0.38100
N1726       N  0.69099071  0.70954201  0.55573780    -0.38100
C1727       C  0.91721206  0.86915517  0.51460165    -0.04700
C1728       C  0.91185636  0.88525709  0.48030933    -0.01900
C1729       C  0.93709168  0.88706165  0.45277814     0.03100
C1730       C  0.96923012  0.87515660  0.45997595    -0.04700
C1731       C  0.97440484  0.85825885  0.49402462    -0.01800
C1732       C  0.94851007  0.85531364  0.52096425     0.03100
C1733       C  0.88071538  0.90150247  0.47364226     0.37800
C1734       C  0.00626579  0.84365624  0.50198669     0.37800
C1735       C  0.95402248  0.83780973  0.55515964     0.36200
C1736       C  0.92921518  0.89977239  0.41618256     0.36200
N1737       N  0.95842802  0.82385806  0.58244859    -0.38600
N1738       N  0.92259684  0.90944451  0.38686145    -0.38600
N1739       N  0.53247431  0.83436873  0.50736808    -0.38100
N1740       N  0.85610075  0.91472083  0.46811821    -0.38100
C1741       C  0.66673645  0.89569911  0.47828258    -0.04700
C1742       C  0.69941773  0.90594153  0.46994811    -0.01900
C1743       C  0.72530392  0.90282059  0.49672805     0.03100
C1744       C  0.71934856  0.88775641  0.53176211    -0.04700
C1745       C  0.68641800  0.87842310  0.54050526    -0.01800
C1746       C  0.66020770  0.88311791  0.51457524     0.03100
C1747       C  0.70628533  0.92101286  0.43437722     0.37800
C1748       C  0.67911393  0.86483593  0.57685447     0.37800
C1749       C  0.62639807  0.87482011  0.52586830     0.36200
C1750       C  0.75802166  0.91545065  0.48765327     0.36200
N1751       N  0.59947407  0.86845830  0.53517265    -0.38600
N1752       N  0.78378947  0.92622022  0.48036620    -0.38600
N1753       N  0.67319571  0.85403155  0.60582391    -0.38100
N1754       N  0.71208137  0.93312929  0.40614656    -0.38100
C1755       C  0.61799477  0.49901590  0.37262112    -0.04700
C1756       C  0.59834475  0.52425367  0.38460760    -0.01900
C1757       C  0.61380190  0.55208299  0.39644165     0.03100
C1758       C  0.64910344  0.55531256  0.39653853    -0.04700
C1759       C  0.66865512  0.53084902  0.38298981    -0.01800
C1760       C  0.65331000  0.50328261  0.37025047     0.03100
C1761       C  0.56208492  0.52206340  0.38466012     0.37800
C1762       C  0.70478580  0.53421542  0.38197610     0.37800
C1763       C  0.67300799  0.98119061  0.34644915     0.36200
C1764       C  0.59282546  0.57747377  0.40813770     0.36200
N1765       N  0.68876252  0.96308549  0.33066803    -0.38600
N1766       N  0.57485212  0.59693681  0.41712305    -0.38600
N1767       N  0.73360481  0.53691582  0.38153965    -0.38100
N1768       N  0.53315050  0.52070060  0.38441092    -0.38100
C1769       C  0.64872377  0.74917699  0.37749807    -0.04700
C1770       C  0.64673949  0.76166143  0.41384376    -0.01900
C1771       C  0.63063455  0.79012062  0.42028200     0.03100
C1772       C  0.61268002  0.80502890  0.39128310    -0.04700
C1773       C  0.61023021  0.78977686  0.35626813    -0.01800
C1774       C  0.62876091  0.76250476  0.34921329     0.03100
C1775       C  0.65690560  0.74338280  0.44590583     0.37800
C1776       C  0.58646746  0.80047630  0.32847145     0.37800
C1777       C  0.62491048  0.74666233  0.31390847     0.36200
C1778       C  0.63236172  0.80324025  0.45736857     0.36200
N1779       N  0.62125210  0.73386910  0.28592066    -0.38600
N1780       N  0.63399811  0.81290871  0.48733419    -0.38600
N1781       N  0.56696775  0.80845923  0.30658564    -0.38100
N1782       N  0.66278716  0.72907495  0.47250091    -0.38100
C1783       C  0.89972783  0.51214634  0.62846305    -0.04700
C1784       C  0.86527105  0.50736110  0.63671881    -0.01900
C1785       C  0.84868634  0.98031125  0.62353985     0.03100
C1786       C  0.86618787  0.95765440  0.60334252    -0.04700
C1787       C  0.90067225  0.96215613  0.59616282    -0.01800
C1788       C  0.91740174  0.98896182  0.60865100     0.03100
C1789       C  0.84687639  0.53030406  0.65767888     0.37800
C1790       C  0.91983809  0.93925727  0.57626125     0.37800
C1791       C  0.95334194  0.99143455  0.60340171     0.36200
C1792       C  0.81367047  0.97528718  0.63262300     0.36200
N1793       N  0.98207977  0.99253458  0.59956129    -0.38600
N1794       N  0.78574404  0.97118249  0.63977572    -0.38600
N1795       N  0.93713447  0.92244400  0.56051115    -0.38100
N1796       N  0.83215527  0.54847197  0.67455968    -0.38100
C1797       C  0.86391301  0.76317355  0.61736649    -0.04700
C1798       C  0.88160969  0.75746895  0.58378860    -0.01900
C1799       C  0.89932511  0.72963154  0.57861750     0.03100
C1800       C  0.89744495  0.70560662  0.60557839    -0.04700
C1801       C  0.87787030  0.71082911  0.63857386    -0.01800
C1802       C  0.86189104  0.73959184  0.64451682     0.03100
C1803       C  0.88022204  0.77944098  0.55303485     0.37800
C1804       C  0.87337652  0.68685060  0.66684210     0.37800
C1805       C  0.84385870  0.74515633  0.67902483     0.36200
C1806       C  0.92036012  0.72655601  0.54580104     0.36200
N1807       N  0.82951672  0.74963425  0.70653938    -0.38600
N1808       N  0.93726222  0.72452196  0.51968755    -0.38600
N1809       N  0.86970932  0.66794092  0.68960814    -0.38100
N1810       N  0.87920340  0.79575192  0.52730506    -0.38100
C1811       C  0.99493467  0.53516493  0.51081333    -0.04700
C1812       C  0.97681916  0.51977000  0.48293671    -0.01900
C1813       C  0.49292259  0.99410792  0.46714250     0.03100
C1814       C  0.52149481  0.97955444  0.48304860    -0.04700
C1815       C  0.53729394  0.99302383  0.51387813    -0.01800
C1816       C  0.52433864  0.51985553  0.52853613     0.03100
C1817       C  0.94515905  0.53230520  0.47009807     0.37800
C1818       C  0.56641133  0.97821080  0.53020488     0.37800
C1819       C  0.54198281  0.53439299  0.55916522     0.36200
C1820       C  0.47657513  0.98109793  0.43468298     0.36200
N1821       N  0.55653222  0.54512628  0.58384307    -0.38600
N1822       N  0.46325780  0.97156616  0.40847880    -0.38600
N1823       N  0.58951339  0.96616370  0.54316134    -0.38100
N1824       N  0.91976827  0.54220475  0.46022507    -0.38100
C1825       C  0.85016321  0.61665557  0.51489112    -0.04700
C1826       C  0.81807169  0.60431068  0.52167920    -0.01900
C1827       C  0.79217177  0.60834911  0.49508226     0.03100
C1828       C  0.79821253  0.62437981  0.46059659    -0.04700
C1829       C  0.83099190  0.63483131  0.45288999    -0.01800
C1830       C  0.85658630  0.63140314  0.47984489     0.03100
C1831       C  0.81201778  0.58619850  0.55536911     0.37800
C1832       C  0.83885517  0.64829866  0.41662331     0.37800
C1833       C  0.88962210  0.64362485  0.47121135     0.36200
C1834       C  0.75915423  0.59636029  0.50422544     0.36200
N1835       N  0.91595527  0.65315422  0.46395065    -0.38600
N1836       N  0.73293110  0.58658076  0.51156667    -0.38600
N1837       N  0.84535853  0.65880065  0.38764646    -0.38100
N1838       N  0.80721071  0.57144009  0.58198962    -0.38100
C1839       C  0.54768781  0.63568042  0.53745859    -0.04700
C1840       C  0.58068339  0.62839857  0.54810202    -0.01900
C1841       C  0.60747649  0.63284823  0.52272672     0.03100
C1842       C  0.60180192  0.64520787  0.48618697    -0.04700
C1843       C  0.56895678  0.65347559  0.47604748    -0.01800
C1844       C  0.54210919  0.64828315  0.50108683     0.03100
C1845       C  0.58724658  0.61635407  0.58535321     0.37800
C1846       C  0.56256361  0.66740719  0.43968937     0.37800
C1847       C  0.50846475  0.65433557  0.48791597     0.36200
C1848       C  0.64074874  0.62348996  0.53437399     0.36200
N1849       N  0.98636224  0.67536416  0.48325726    -0.38600
N1850       N  0.66718784  0.61611134  0.54399888    -0.38600
N1851       N  0.55742630  0.67833251  0.41062547    -0.38100
N1852       N  0.59257206  0.60669806  0.61501378    -0.38100
C1853       C  0.73252771  0.65307404  0.28017978    -0.04700
C1854       C  0.75414103  0.62833046  0.27090864    -0.01900
C1855       C  0.77485605  0.62998719  0.23862962     0.03100
C1856       C  0.77485201  0.65677952  0.21573200    -0.06300
C1857       C  0.75378110  0.68177991  0.22565938    -0.01800
C1858       C  0.73267332  0.67979600  0.25728707     0.03100
C1859       C  0.75539325  0.60126765  0.29506109     0.37800
C1860       C  0.75461755  0.71031930  0.20389931     0.37800
C1861       C  0.71269038  0.70631843  0.26762561     0.36200
C1862       C  0.79566592  0.60393940  0.22870053     0.36200
N1863       N  0.69713211  0.72774312  0.27571828    -0.38600
N1864       N  0.81225895  0.58310770  0.22082271    -0.38600
N1865       N  0.75530684  0.73304398  0.18654988    -0.38100
N1866       N  0.75645558  0.57969865  0.31440159    -0.38100
C1867       C  0.73944417  0.85638809  0.78341429    -0.04700
C1868       C  0.72978338  0.83683058  0.75397255    -0.01900
C1869       C  0.74924911  0.83512553  0.72099550     0.03100
C1870       C  0.77796979  0.85439766  0.71555049    -0.04700
C1871       C  0.78793057  0.87374834  0.74522046    -0.01800
C1872       C  0.76913609  0.87439091  0.77907244     0.03100
C1873       C  0.70040365  0.81718211  0.75817914     0.37800
C1874       C  0.81719675  0.89338934  0.74081660     0.37800
C1875       C  0.78018323  0.89398777  0.80937661     0.36200
C1876       C  0.74040801  0.81201956  0.69342809     0.36200
N1877       N  0.78907260  0.90955763  0.83363960    -0.38600
N1878       N  0.73339113  0.79340858  0.67167119    -0.38600
N1879       N  0.84059766  0.90901186  0.73727890    -0.38100
N1880       N  0.67691520  0.80163211  0.76137975    -0.38100
C1881       C  0.77210950  0.72781574  0.01267247    -0.04700
C1882       C  0.77407572  0.75840157  0.02812480    -0.01900
C1883       C  0.75066150  0.78152549  0.01842765     0.03100
C1884       C  0.72634236  0.77581552  0.99103127    -0.04700
C1885       C  0.72267653  0.74498014  0.97779862    -0.01800
C1886       C  0.74606995  0.72171079  0.98710050     0.03100
C1887       C  0.80055783  0.76740177  0.05356671     0.37800
C1888       C  0.69366837  0.73637382  0.95594061     0.37800
C1889       C  0.74331126  0.69173530  0.96930679     0.36200
C1890       C  0.75171178  0.81125495  0.03715189     0.36200
N1891       N  0.74113481  0.66810768  0.95451038    -0.38600
N1892       N  0.75239308  0.83471470  0.05249917    -0.38600
N1893       N  0.67046557  0.72866070  0.93910426    -0.38100
N1894       N  0.82106965  0.77548880  0.07411263    -0.38100
C1895       C  0.98917786  0.90460461  0.21310859    -0.04700
C1896       C  0.51811833  0.88672795  0.21520240    -0.01900
C1897       C  0.53849254  0.88865743  0.24763042     0.03100
C1898       C  0.52934618  0.90826953  0.27723720    -0.04700
C1899       C  0.00190080  0.92734262  0.27369744    -0.01800
C1900       C  0.98127791  0.92533103  0.24185997     0.03100
C1901       C  0.52709121  0.86563313  0.18557716     0.37800
C1902       C  0.99461315  0.95084122  0.30134402     0.37800
C1903       C  0.95248429  0.94551606  0.23812696     0.36200
C1904       C  0.56888605  0.87066105  0.25023830     0.36200
N1905       N  0.92946902  0.96151279  0.23525292    -0.38600
N1906       N  0.59342079  0.85661002  0.25191717    -0.38600
N1907       N  0.98883992  0.96957542  0.32332248    -0.38100
N1908       N  0.53408712  0.84868344  0.16198882    -0.38100
C1909       C  0.53913370  0.89054334  0.02466278    -0.04700
C1910       C  0.57249149  0.89485768  0.03595545    -0.01900
C1911       C  0.59893589  0.89014264  0.01037610     0.03100
C1912       C  0.59241598  0.88005229  0.97322006    -0.04700
C1913       C  0.55888143  0.87797920  0.96120926    -0.01800
C1914       C  0.53243528  0.88285526  0.98679317     0.03100
C1915       C  0.57965087  0.90296691  0.07439620     0.37800
C1916       C  0.55137406  0.87046688  0.92267997     0.37800
C1917       C  0.49818622  0.88028061  0.97361667     0.36200
C1918       C  0.63289651  0.89702906  0.02220521     0.36200
N1919       N  0.97548570  0.86460719  0.97197428    -0.38600
N1920       N  0.65989738  0.90275025  0.03166861    -0.38600
N1921       N  0.54537317  0.86453721  0.89191795    -0.38100
N1922       N  0.58517853  0.90923847  0.10516413    -0.38100
C1923       C  0.79491319  0.87365118  0.96659624    -0.04700
C1924       C  0.80258797  0.90406520  0.97911588    -0.01900
C1925       C  0.82720226  0.90893310  0.00691097     0.03100
C1926       C  0.84400387  0.88364220  0.02342559    -0.04700
C1927       C  0.83849688  0.85381079  0.00870578    -0.01800
C1928       C  0.81447879  0.84879383  0.98043228     0.03100
C1929       C  0.78655991  0.93080170  0.96221451     0.37800
C1930       C  0.85958110  0.82829724  0.01979446     0.37800
C1931       C  0.81098580  0.81787927  0.96517039     0.36200
C1932       C  0.83687918  0.94026328  0.01672472     0.36200
N1933       N  0.80869274  0.79326503  0.95287858    -0.38600
N1934       N  0.84504226  0.96526693  0.02381366    -0.38600
N1935       N  0.87591093  0.80699483  0.02642940    -0.38100
N1936       N  0.77400436  0.95227091  0.94880836    -0.38100
C1937       C  0.85749640  0.55112077  0.10898186    -0.04700
C1938       C  0.83874833  0.52352907  0.10842269    -0.01900
C1939       C  0.85365286  0.49504284  0.11917828     0.03100
C1940       C  0.88860799  0.49333159  0.12770857    -0.04700
C1941       C  0.90673473  0.52161816  0.12994199    -0.01800
C1942       C  0.89106061  0.55011876  0.12164633     0.03100
C1943       C  0.80363305  0.52474715  0.09823601     0.37800
C1944       C  0.94156426  0.52212795  0.14145378     0.37800
C1945       C  0.90979570  0.57860873  0.12719137     0.36200
C1946       C  0.83119345  0.96620741  0.10989372     0.36200
N1947       N  0.92532355  0.60078859  0.13267699    -0.38600
N1948       N  0.81470528  0.94422163  0.10730469    -0.38600
N1949       N  0.96930098  0.52289619  0.15070425    -0.38100
N1950       N  0.77563598  0.52587240  0.09010289    -0.38100
C1951       C  0.90853542  0.80136011  0.10902792    -0.04700
C1952       C  0.91530622  0.77591689  0.08584310    -0.01900
C1953       C  0.89732843  0.74786923  0.09053382     0.03100
C1954       C  0.87538574  0.74334172  0.12138208    -0.04700
C1955       C  0.87041367  0.76793094  0.14626264    -0.01800
C1956       C  0.88573992  0.79701654  0.13947318     0.03100
C1957       C  0.94002759  0.77875263  0.05625460     0.37800
C1958       C  0.84915490  0.76345674  0.17878729     0.37800
C1959       C  0.87627168  0.82266826  0.16316336     0.36200
C1960       C  0.89867183  0.72528440  0.06089324     0.36200
N1961       N  0.86852997  0.84301940  0.18207733    -0.38600
N1962       N  0.89940242  0.70827220  0.03615117    -0.38600
N1963       N  0.83233099  0.75987634  0.20481119    -0.38100
N1964       N  0.95957929  0.78102686  0.03250873    -0.38100
C1965       C  0.98285988  0.60834130  0.71854456    -0.04700
C1966       C  0.51007138  0.63004540  0.72665412    -0.01900
C1967       C  0.52997204  0.62645484  0.75923676     0.03100
C1968       C  0.52405640  0.60138751  0.78402592    -0.04700
C1969       C  0.00233111  0.57839922  0.77253110    -0.01800
C1970       C  0.98057043  0.58185709  0.74174385     0.03100
C1971       C  0.51719647  0.65521123  0.70065197     0.37800
C1972       C  0.00244497  0.54922187  0.79311593     0.37800
C1973       C  0.95690439  0.55744002  0.73296275     0.36200
C1974       C  0.55615923  0.64867004  0.76733718     0.36200
N1975       N  0.93788674  0.53790549  0.72623096    -0.38600
N1976       N  0.57714512  0.66646239  0.77375684    -0.38600
N1977       N  0.00283746  0.52586097  0.80901892    -0.38100
N1978       N  0.52279356  0.67513203  0.67979468    -0.38100
C1979       C  0.98426234  0.98152286  0.01424974    -0.04700
C1980       C  0.50067090  0.00173723  0.03888304    -0.01900
C1981       C  0.51909103  0.52752522  0.02640367     0.03100
C1982       C  0.51514109  0.53636163  0.98899445    -0.04700
C1983       C  0.99767825  0.51660412  0.96274543    -0.01800
C1984       C  0.98097623  0.49021008  0.97684431     0.03100
C1985       C  0.50561963  0.99300999  0.07776181     0.37800
C1986       C  0.99180215  0.52541368  0.92410864     0.37800
C1987       C  0.95777808  0.47306007  0.95351858     0.36200
C1988       C  0.54291999  0.54384734  0.04977192     0.36200
N1989       N  0.93926411  0.45939661  0.93497786    -0.38600
N1990       N  0.56205228  0.55675089  0.06832392    -0.38600
N1991       N  0.98661850  0.53174241  0.89317665    -0.38100
N1992       N  0.51002331  0.98646221  0.10879183    -0.38100
C1993       C  0.63656382  0.76604082  0.87169425    -0.04700
C1994       C  0.60885195  0.76270185  0.89665899    -0.01900
C1995       C  0.59372252  0.73345360  0.90329496     0.03100
C1996       C  0.60697203  0.70669725  0.88692619    -0.04700
C1997       C  0.63497359  0.70973369  0.86264387    -0.01800
C1998       C  0.64883185  0.73914743  0.85412406     0.03100
C1999       C  0.59702072  0.78851358  0.91840303     0.37800
C2000       C  0.65155166  0.68235272  0.84854056     0.37800
C2001       C  0.67630188  0.74127538  0.82768397     0.36200
C2002       C  0.56452853  0.73089300  0.92735128     0.36200
N2003       N  0.69827943  0.74265033  0.80665828    -0.38600
N2004       N  0.54123955  0.72877804  0.94646102    -0.38600
N2005       N  0.66505780  0.66058421  0.83763387    -0.38100
N2006       N  0.58691003  0.80814999  0.93691546    -0.38100
C2007       C  0.65314940  0.95635119  0.89304336    -0.04700
C2008       C  0.65598732  0.98071874  0.91893442    -0.01900
C2009       C  0.63495147  0.50558552  0.91661594     0.03100
C2010       C  0.61873528  0.51193510  0.88225429    -0.04700
C2011       C  0.61513976  0.98882468  0.85512635    -0.01800
C2012       C  0.63143761  0.96035080  0.86165490     0.03100
C2013       C  0.67861767  0.97817125  0.95046738     0.37800
C2014       C  0.59531751  0.99333423  0.82155603     0.37800
C2015       C  0.62391621  0.93480907  0.83683559     0.36200
C2016       C  0.63026662  0.52613116  0.94803347     0.36200
N2017       N  0.61760809  0.91446389  0.81718645    -0.38600
N2018       N  0.62622614  0.54197452  0.97351822    -0.38600
N2019       N  0.57955918  0.99695239  0.79475852    -0.38100
N2020       N  0.69684594  0.97640570  0.97551054    -0.38100
C2021       C  0.66374962  0.62463502  0.98025792    -0.04700
C2022       C  0.66082639  0.64717048  0.00859926    -0.01900
C2023       C  0.68578311  0.65040018  0.03630170     0.03100
C2024       C  0.71479488  0.63172090  0.03564014    -0.04700
C2025       C  0.71737455  0.60880471  0.00706485    -0.01800
C2026       C  0.69205286  0.60551445  0.97970199     0.03100
C2027       C  0.63224834  0.66779707  0.00884412     0.37800
C2028       C  0.74628631  0.58869940  0.00449767     0.37800
C2029       C  0.69503937  0.58211280  0.95104447     0.36200
C2030       C  0.68092386  0.67266083  0.06593859     0.36200
N2031       N  0.69768118  0.56345702  0.92823643    -0.38600
N2032       N  0.67696026  0.69036021  0.08960711    -0.38600
N2033       N  0.76917217  0.57250185  0.00221140    -0.38100
N2034       N  0.60966654  0.68445455  0.00916618    -0.38100
C2035       C  0.96559071  0.62600328  0.96413185    -0.04700
C2036       C  0.93346500  0.61370192  0.95719209    -0.01900
C2037       C  0.90769180  0.61682068  0.98394034     0.03100
C2038       C  0.91371159  0.63195891  0.01847683    -0.04700
C2039       C  0.94617514  0.64287535  0.02627434    -0.01800
C2040       C  0.97172264  0.64063198  0.99907086     0.03100
C2041       C  0.92660265  0.59826705  0.92213749     0.37800
C2042       C  0.95335992  0.65672489  0.06221194     0.37800
C2043       C  0.00456341  0.65297203  0.00795541     0.36200
C2044       C  0.87502166  0.60350394  0.97606759     0.36200
N2045       N  0.53052114  0.66398470  0.01663074    -0.38600
N2046       N  0.84897924  0.59297006  0.96970209    -0.38600
N2047       N  0.95916355  0.66754890  0.09097342    -0.38100
N2048       N  0.92113827  0.58589595  0.89422576    -0.38100
loop_ 
_geom_bond_atom_site_label_1 
_geom_bond_atom_site_label_2 
_geom_bond_distance 
_geom_bond_site_symmetry_2 
_ccdc_geom_bond_type 
Fe1          O17   2.095       .  S
Fe1           O7   2.002       .  S
Fe1          O14   2.018       .  S
Fe1        O1030   2.139   1_455  S
Fe1          O12   1.906       .  S
Fe2           O5   2.151       .  S
Fe2           O9   2.044       .  S
Fe2          O13   2.158       .  S
Fe2          O18   2.028       .  S
Fe2          O12   1.909       .  S
Fe3          O21   2.021       .  S
Fe3           O8   2.148       .  S
Fe3          O15   2.161       .  S
Fe3           O4   2.037       .  S
Fe3          O12   1.923       .  S
O4         C1035   1.265   1_455  A
O5           C19   1.288       .  A
O6        Fe1025   2.133       .  S
O6           C11   1.280       .  A
O7           C10   1.247       .  A
O8           C20   1.289       .  A
O9           C22   1.263       .  A
C10          O15   1.284       .  A
C10         C446   1.484       .  S
C11        O1028   1.263       .  A
C11         C499   1.503       .  S
O13          C16   1.291       .  A
O14          C16   1.267       .  A
C16         C432   1.500       .  S
O17          C22   1.274       .  A
O18          C20   1.263       .  A
C19          O21   1.263       .  A
C19         C485   1.494       .  S
C20         C460   1.506       .  S
C22         C474   1.489       .  S
Fe23         O39   2.028       .  S
Fe23         O36   2.098       .  S
Fe23         O28   1.999       .  S
Fe23       O1053   2.156       .  S
Fe23         O34   1.894       .  S
Fe24         O27   2.023       .  S
Fe24         O31   2.153       .  S
Fe24         O35   2.043       .  S
Fe24         O40   2.162       .  S
Fe24         O34   1.905       .  S
Fe25         O43   2.149       .  S
Fe25         O30   2.018       .  S
Fe25         O37   2.029       .  S
Fe25         O26   2.150       .  S
Fe25         O34   1.919       .  S
O26          C33   1.279       .  A
O27          C41   1.261       .  A
O28          C33   1.241       .  A
O29       Fe1047   2.148   1_455  S
O29          C32   1.284       .  A
O30          C42   1.260       .  A
O31          C44   1.292       .  A
C32        O1061   1.263   1_455  A
C32         C373   1.499       .  S
C33         C443   1.478       .  S
O35          C38   1.262       .  A
O36          C38   1.277       .  A
O37        C1056   1.266       .  A
C38         C916   1.515       .  S
O39          C44   1.267       .  A
O40          C42   1.289       .  A
C41          O43   1.290       .  A
C41         C415   1.509       .  S
C42         C390   1.497       .  S
C44         C359   1.497       .  S
Fe45         O61   2.038       .  S
Fe45         O51   2.160       .  S
Fe45         O58   2.101       .  S
Fe45         O50   2.002       .  S
Fe45         O56   1.900       .  S
Fe46         O49   2.030       .  S
Fe46         O53   2.156       .  S
Fe46         O57   2.060       .  S
Fe46         O62   2.154       .  S
Fe46         O56   1.902       .  S
Fe47         O65   2.150       .  S
Fe47         O52   2.020       .  S
Fe47         O59   2.026       .  S
Fe47         O48   2.165       .  S
Fe47         O56   1.917       .  S
O48          C55   1.284       .  A
O49          C63   1.263       .  A
O50          C55   1.241       .  A
O51          C54   1.288       .  A
O52          C64   1.263       .  A
O53          C66   1.293       .  A
C54          O59   1.265       .  A
C54         C387   1.510       .  S
C55         C348   1.489       .  S
O57          C60   1.266       .  A
O58          C60   1.277       .  A
C60         C457   1.508       .  S
O61          C66   1.269       .  A
O62          C64   1.288       .  A
C63          O65   1.289       .  A
C63         C471   1.508       .  S
C64         C376   1.500       .  S
C66         C331   1.501       .  S
Fe67         O83   2.095       .  S
Fe67         O73   2.005       .  S
Fe67         O80   2.018       .  S
Fe67         O72   2.142       .  S
Fe67         O78   1.912       .  S
Fe68         O71   2.140       .  S
Fe68         O75   2.045       .  S
Fe68         O79   2.155       .  S
Fe68         O84   2.029       .  S
Fe68         O78   1.908       .  S
Fe69         O87   2.021       .  S
Fe69         O74   2.134       .  S
Fe69         O81   2.161       .  S
Fe69         O70   2.032       .  S
Fe69         O78   1.923       .  S
O70          C77   1.262       .  A
O71          C85   1.286       .  A
O72          C77   1.283       .  A
O73          C76   1.248       .  A
O74          C86   1.284       .  A
O75          C88   1.262       .  A
C76          O81   1.283       .  A
C76         C345   1.488       .  S
C77         C488   1.505       .  S
O79          C82   1.292       .  A
O80          C82   1.266       .  A
C82         C320   1.495       .  S
O83          C88   1.274       .  A
O84          C86   1.264       .  A
C85          O87   1.266       .  A
C85         C502   1.489       .  S
C86         C401   1.493       .  S
C88         C418   1.487       .  S
Fe89        O105   2.118       .  S
Fe89         O95   1.988       .  S
Fe89        O102   2.015       .  S
Fe89       O1118   2.130       .  S
Fe89        O100   1.909       .  S
Fe90         O93   2.144       .  S
Fe90         O97   2.033       .  S
Fe90        O101   2.140       .  S
Fe90        O106   2.029       .  S
Fe90        O100   1.916       .  S
Fe91        O109   2.024       .  S
Fe91         O96   2.151       .  S
Fe91        O103   2.160       .  S
Fe91       O1116   2.040       .  S
Fe91        O100   1.913       .  S
O92       Fe1115   2.033       .  S
O92          C99   1.261   1_655  A
O93         C107   1.286       .  A
O94       Fe1113   2.133   1_455  S
O94          C99   1.282       .  A
O95          C98   1.251       .  A
O96         C108   1.289       .  A
O97         C110   1.264       .  A
C98         O103   1.288       .  A
C98         C275   1.478       .  S
C99         C303   1.503       .  S
O101        C104   1.286       .  A
O102        C104   1.261       .  A
C104        C429   1.483       .  S
O105        C110   1.281       .  A
O106        C108   1.262       .  A
C107        O109   1.263       .  A
C107        C289   1.495       .  S
C108        C264   1.515       .  S
C110        C247   1.497       .  S
Fe111       O127   2.011       .  S
Fe111       O124   2.133       .  S
Fe111       O116   1.984       .  S
Fe111      O1141   2.135   1_455  S
Fe111       O122   1.904       .  S
Fe112       O115   2.030       .  S
Fe112       O119   2.174       .  S
Fe112       O123   2.027       .  S
Fe112       O128   2.152       .  S
Fe112       O122   1.920       .  S
Fe113       O131   2.137       .  S
Fe113       O118   2.021       .  S
Fe113       O125   2.028       .  S
Fe113       O114   2.161       .  S
Fe113       O122   1.904       .  S
O114        C121   1.288       .  A
O115        C129   1.266       .  A
O116        C121   1.252       .  A
O117      Fe1135   2.125       .  S
O117        C120   1.279       .  A
O118        C130   1.261       .  A
O119        C132   1.291       .  A
C120       O1149   1.258       .  A
C120        C194   1.498       .  S
C121        C278   1.476       .  S
O123        C126   1.262       .  A
O124        C126   1.285       .  A
O125       C1144   1.256   1_455  A
C126        C731   1.510       .  S
O127        C132   1.257       .  A
O128        C130   1.290       .  A
C129        O131   1.287       .  A
C129        C236   1.502       .  S
C130        C205   1.500       .  S
C132        C362   1.506       .  S
Fe133       O149   2.014       .  S
Fe133       O139   2.130       .  S
Fe133       O146   2.110       .  S
Fe133       O138   1.983       .  S
Fe133       O144   1.903       .  S
Fe134       O137   2.028       .  S
Fe134       O141   2.174       .  S
Fe134       O145   2.035       .  S
Fe134       O150   2.140       .  S
Fe134       O144   1.912       .  S
Fe135       O153   2.143       .  S
Fe135       O140   2.011       .  S
Fe135       O147   2.031       .  S
Fe135       O136   2.168       .  S
Fe135       O144   1.913       .  S
O136        C143   1.288       .  A
O137        C151   1.266       .  A
O138        C143   1.249       .  A
O139        C142   1.279       .  A
O140        C152   1.261       .  A
O141        C154   1.293       .  A
C142        O147   1.259       .  A
C142        C208   1.500       .  S
C143        C180   1.477       .  S
O145        C148   1.261       .  A
O146        C148   1.279       .  A
C148        C261   1.497       .  S
O149        C154   1.261       .  A
O150        C152   1.288       .  A
C151        O153   1.287       .  A
C151        C250   1.485       .  S
C152        C191   1.495       .  S
C154        C334   1.505       .  S
Fe155       O171   2.122       .  S
Fe155       O161   1.974       .  S
Fe155       O168   2.017       .  S
Fe155       O160   2.140       .  S
Fe155       O166   1.914       .  S
Fe156       O159   2.138       .  S
Fe156       O163   2.020       .  S
Fe156       O167   2.158       .  S
Fe156       O172   2.028       .  S
Fe156       O166   1.916       .  S
Fe157       O175   2.020       .  S
Fe157       O162   2.153       .  S
Fe157       O169   2.169       .  S
Fe157       O158   2.031       .  S
Fe157       O166   1.920       .  S
O158        C165   1.260       .  A
O159        C173   1.288       .  A
O160        C165   1.283       .  A
O161        C164   1.248       .  A
O162        C174   1.287       .  A
O163        C176   1.257       .  A
C164        O169   1.287       .  A
C164        C177   1.479       .  S
C165        C292   1.508       .  S
O167        C170   1.290       .  A
O168        C170   1.261       .  A
C170        C317   1.491       .  S
O171        C176   1.282       .  A
O172        C174   1.264       .  A
C173        O175   1.263       .  A
C173        C306   1.495       .  S
C174        C222   1.493       .  S
C176        C233   1.487       .  S
C177        C178   1.401       .  A
C177        C182   1.427       .  A
C178        C179   1.409       .  A
C178        C183   1.451       .  S
C179        C180   1.425       .  A
C179        C186   1.451       .  S
C180        C181   1.400       .  A
C181        C182   1.410       .  A
C181        C184   1.451       .  S
C182        C185   1.451       .  S
C183        N190   1.157       .  T
C184        N189   1.157       .  T
C185        N187   1.157       .  T
C186        N188   1.157       .  T
C191        C192   1.423       .  A
C191        C196   1.407       .  A
C192        C193   1.411       .  A
C192        C197   1.451       .  S
C193        C194   1.408       .  A
C193        C200   1.452       .  S
C194        C195   1.427       .  A
C195        C196   1.413       .  A
C195        C198   1.451       .  S
C196        C199   1.452       .  S
C197        N204   1.157       .  T
C198       N1227   1.157       .  T
C199        N201   1.157       .  T
C200        N202   1.158       .  T
N203       C1222   1.157       .  T
C205        C206   1.407       .  A
C205        C210   1.426       .  A
C206        C207   1.414       .  A
C206        C211   1.450       .  S
C207        C208   1.426       .  A
C207        C214   1.451       .  S
C208        C209   1.409       .  A
C209        C210   1.413       .  A
C209        C212   1.452       .  S
C210        C213   1.452       .  S
C211        N218   1.156       .  T
C212        N217   1.157       .  T
C213        N215   1.157       .  T
C214        N216   1.157       .  T
C219        C638   1.508   1_545  S
C219        C220   1.416       .  A
C219        C224   1.424       .  A
C220        C221   1.418       .  A
C220        C225   1.451       .  S
C221        C222   1.418       .  A
C221        C228   1.449       .  S
C222        C223   1.408       .  A
C223        C224   1.416       .  A
C223        C226   1.450       .  S
C224        C739   1.451   1_545  S
C225        N232   1.157       .  T
C226        N231   1.157       .  T
C227        C736   1.451       .  S
C227        N229   1.158       .  T
C228        N230   1.157       .  T
C233        C234   1.413       .  A
C233        C238   1.409       .  A
C234        C235   1.408       .  A
C234        C239   1.448       .  S
C235        C236   1.414       .  A
C235        C242   1.448       .  S
C236        C237   1.424       .  A
C237        C238   1.418       .  A
C237        C240   1.450       .  S
C238        C241   1.450       .  S
C239        N246   1.156       .  T
C240        N245   1.157       .  T
C241        N243   1.157       .  T
C242        N244   1.156       .  T
C247        C248   1.419       .  A
C247        C764   1.411   1_545  A
C248        C761   1.416   1_545  A
C248        C253   1.450       .  S
C249        C250   1.409       .  A
C249        C760   1.415       .  A
C249        C256   1.451       .  S
C250        C251   1.415       .  A
C251        C252   1.412       .  A
C251        C254   1.447       .  S
C252        C759   1.412       .  A
C252        C255   1.452       .  S
C253        N260   1.157       .  T
C254        N259   1.156       .  T
C255        N257   1.157       .  T
C256        N258   1.157       .  T
C261        C262   1.419       .  A
C261        C266   1.404       .  A
C262        C263   1.414       .  A
C262        C267   1.450       .  S
C263        C264   1.415       .  A
C263        C270   1.451       .  S
C264        C265   1.435       .  A
C265        C266   1.417       .  A
C265        C268   1.452       .  S
C266        C269   1.452       .  S
C267        N274   1.156       .  T
C268        N273   1.158       .  T
C269        N271   1.157       .  T
C270        N272   1.157       .  T
C275        C276   1.402       .  A
C275       C1304   1.424       .  A
C276       C1813   1.409   1_545  A
C276        C281   1.452       .  S
C277        C278   1.423   1_655  A
C277       C1812   1.411       .  A
C277        C284   1.450       .  S
C278        C279   1.400       .  A
C279        C792   1.409       .  A
C279        C282   1.452       .  S
C280       C1299   1.423   1_455  A
C280        C791   1.410   1_545  A
C280        C283   1.448       .  S
C281        N288   1.157       .  T
C282        N287   1.157       .  T
C283        N285   1.156       .  T
C284        N286   1.157       .  T
C289        C290   1.406       .  A
C289        C294   1.420       .  A
C290        C291   1.417       .  A
C290        C295   1.452       .  S
C291        C292   1.432       .  A
C291        C298   1.451       .  S
C292        C293   1.412       .  A
C293        C294   1.412       .  A
C293        C296   1.451       .  S
C294        C297   1.450       .  S
C295        N302   1.157       .  T
C296        N301   1.157       .  T
C297        N299   1.156       .  T
C298        N300   1.157       .  T
C303        C304   1.411       .  A
C303        C308   1.428       .  A
C304        C305   1.412       .  A
C304        C309   1.451       .  S
C305        C306   1.422       .  A
C305        C312   1.452       .  S
C306        C307   1.407       .  A
C307        C308   1.414       .  A
C307        C310   1.452       .  S
C308        C311   1.450       .  S
C309        N316   1.158       .  T
C310        N315   1.158       .  T
C311       N1337   1.156   1_455  T
C312        N314   1.157       .  T
N313       C1335   1.156       .  T
C317        C318   1.417       .  A
C317        C322   1.412       .  A
C318        C319   1.420       .  A
C318        C323   1.448       .  S
C319        C320   1.411       .  A
C319        C326   1.450       .  S
C320        C321   1.417       .  A
C321        C322   1.413       .  A
C321        C324   1.452       .  S
C322        C325   1.451       .  S
C323        N330   1.157       .  T
C324        N329   1.157       .  T
C325        N327   1.157       .  T
C326        N328   1.157       .  T
C331        C332   1.407       .  A
C331        C336   1.422       .  A
C332        C333   1.412       .  A
C332        C337   1.450       .  S
C333        C334   1.424       .  A
C333        C340   1.453       .  S
C334        C335   1.412       .  A
C335        C336   1.425       .  A
C335        C338   1.449       .  S
C336        C339   1.449       .  S
C337        N344   1.156       .  T
C338        N343   1.157       .  T
C339        N341   1.158       .  T
C340        N342   1.158       .  T
C345        C346   1.429       .  A
C345        C350   1.401   1_554  A
C346        C347   1.410       .  A
C346        C351   1.453       .  S
C347        C348   1.401   1_554  A
C347        C354   1.451       .  S
C348        C349   1.433       .  A
C349        C350   1.410       .  A
C349        C352   1.455       .  S
C350        C353   1.451       .  S
C351        N358   1.156       .  T
C352        N357   1.156       .  T
C353        N355   1.158       .  T
C354        N356   1.158       .  T
C359        C364   1.409       .  A
C359       C1384   1.421       .  A
C360        C361   1.422       .  A
C360       C1383   1.422   1_455  A
C360        C365   1.451       .  S
C361        C362   1.411       .  A
C361        C368   1.449       .  S
C362       C1387   1.427       .  A
C363        C364   1.413       .  A
C363       C1386   1.426       .  A
C363        C366   1.455       .  S
C364        C367   1.453       .  S
C365        N372   1.157       .  T
C366        N371   1.158       .  T
C367        N369   1.157       .  T
C368        N370   1.157       .  T
C373        C374   1.408       .  A
C373        C378   1.426   1_554  A
C374        C375   1.415       .  A
C374        C379   1.451       .  S
C375        C376   1.424   1_554  A
C375        C382   1.452       .  S
C376        C377   1.409       .  A
C377        C378   1.416       .  A
C377        C380   1.451       .  S
C378        C381   1.452       .  S
C379        N386   1.157       .  T
C380        N385   1.158       .  T
C381       N1407   1.157   1_455  T
C382        N384   1.157       .  T
N383       C1405   1.157       .  T
C387        C388   1.421       .  A
C387        C392   1.417       .  A
C388        C389   1.417   1_556  A
C388        C393   1.452       .  S
C389        C390   1.419       .  A
C389        C396   1.453       .  S
C390        C391   1.410       .  A
C391        C392   1.416   1_554  A
C391        C394   1.448       .  S
C392        C395   1.444       .  S
C393        N400   1.157       .  T
C394        N399   1.156       .  T
C395        N397   1.156       .  T
C396        N398   1.157       .  T
C401        C402   1.405       .  A
C401        C406   1.419       .  A
C402        C403   1.416   1_545  A
C402        C407   1.452       .  S
C403        C404   1.432       .  A
C403        C922   1.451       .  S
C404        C550   1.512       .  S
C404        C405   1.418   1_565  A
C405        C406   1.413       .  A
C405        C408   1.452       .  S
C406        C409   1.454       .  S
C407        N414   1.157       .  T
C408        N413   1.158       .  T
C409        N411   1.157       .  T
C410        C915   1.450       .  S
C410        N412   1.157       .  T
C415        C416   1.415       .  A
C415        C420   1.434       .  A
C416        C417   1.415       .  A
C416        C421   1.451       .  S
C417        C418   1.417       .  A
C417        C424   1.451       .  S
C418        C419   1.402       .  A
C419        C420   1.412       .  A
C419        C422   1.453       .  S
C420        C423   1.453       .  S
C421        N428   1.157       .  T
C422        N427   1.157       .  T
C423        N425   1.158       .  T
C424        N426   1.157       .  T
C429        C434   1.410       .  A
C429       C1454   1.416       .  A
C430        C431   1.419       .  A
C430       C1453   1.418   1_455  A
C430        C435   1.453       .  S
C431        C432   1.413       .  A
C431        C438   1.447       .  S
C432       C1457   1.420       .  A
C433        C434   1.410       .  A
C433       C1456   1.418       .  A
C433        C436   1.454       .  S
C434        C437   1.451       .  S
C435        N442   1.155       .  T
C436        N441   1.155       .  T
C437        N439   1.160       .  T
C438        N440   1.159       .  T
C443       C1468   1.429       .  A
C443        C960   1.398   1_554  A
C444       C1467   1.428   1_455  A
C444        C957   1.408       .  A
C444        C449   1.452       .  S
C445        C446   1.399   1_554  A
C445        C956   1.410   1_545  A
C445        C452   1.452       .  S
C446       C1471   1.429   1_455  A
C447        C448   1.406   1_545  A
C447       C1470   1.429       .  A
C447        C450   1.450       .  S
C448        C955   1.398   1_556  A
C448        C451   1.453       .  S
C449        N456   1.158       .  T
C450        N455   1.157       .  T
C451        N453   1.157       .  T
C452        N454   1.157       .  T
C457        C458   1.425       .  A
C457        C462   1.411       .  A
C458        C459   1.416       .  A
C458        C463   1.447       .  S
C459        C460   1.408       .  A
C459        C466   1.453       .  S
C460        C461   1.428       .  A
C461        C462   1.416       .  A
C461        C464   1.453       .  S
C462        C465   1.451       .  S
C463        N470   1.156       .  T
C464        N469   1.158       .  T
C465        N467   1.157       .  T
C466        N468   1.157       .  T
C471        C472   1.413       .  A
C471        C476   1.432       .  A
C472        C985   1.415       .  A
C472        C477   1.451       .  S
C473        C474   1.418       .  A
C473        C984   1.412   1_545  A
C473        C480   1.450       .  S
C474        C987   1.405   1_545  A
C475        C476   1.415       .  A
C475        C986   1.407       .  A
C475        C478   1.452       .  S
C476        C479   1.453       .  S
C477        N484   1.158       .  T
C478        N483   1.158       .  T
C479        N481   1.157       .  T
C480        N482   1.156       .  T
C485        C486   1.420   1_556  A
C485        C490   1.406       .  A
C486        C487   1.414       .  A
C486        C491   1.451       .  S
C487        C488   1.412       .  A
C487        C494   1.452       .  S
C488        C489   1.430       .  A
C489        C490   1.416   1_554  A
C489        C492   1.451   1_554  S
C490        C493   1.451       .  S
C491        N498   1.157       .  T
C492        N497   1.157       .  T
C493        N495   1.157       .  T
C494        N496   1.157       .  T
C499        C500   1.414       .  A
C499        C504   1.430       .  A
C500        C501   1.411       .  A
C500        C505   1.452       .  S
C501        C502   1.416   1_556  A
C501        C508   1.452       .  S
C502        C503   1.405       .  A
C503        C504   1.415   1_554  A
C503        C506   1.451       .  S
C504        C507   1.451   1_556  S
C505        N512   1.157       .  T
C506        N511   1.157       .  T
C507       N1533   1.157       .  T
C508        N510   1.157       .  T
N509       C1531   1.157       .  T
Fe513       O529   2.100       .  S
Fe513       O519   1.996       .  S
Fe513       O526   2.012       .  S
Fe513      O1542   2.141   1_455  S
Fe513       O524   1.906       .  S
Fe514       O517   2.149       .  S
Fe514       O521   2.050       .  S
Fe514       O525   2.156       .  S
Fe514       O530   2.028       .  S
Fe514       O524   1.904       .  S
Fe515       O533   2.021       .  S
Fe515       O520   2.139       .  S
Fe515       O527   2.163       .  S
Fe515       O516   2.033       .  S
Fe515       O524   1.923       .  S
O516       C1547   1.262   1_455  A
O517        C531   1.288       .  A
O518      Fe1537   2.133       .  S
O518        C523   1.280       .  A
O519        C522   1.246       .  A
O520        C532   1.286       .  A
O521        C534   1.264       .  A
C522        O527   1.285       .  A
C522        C958   1.480       .  S
C523       O1540   1.262       .  A
C523       C1011   1.498       .  S
O525        C528   1.291       .  A
O526        C528   1.265       .  A
C528        C944   1.495       .  S
O529        C534   1.276       .  A
O530        C532   1.263       .  A
C531        O533   1.265       .  A
C531        C997   1.493       .  S
C532        C972   1.504       .  S
C534        C986   1.495       .  S
Fe535       O551   2.029       .  S
Fe535      O1565   2.149       .  S
Fe535       O548   2.098       .  S
Fe535       O540   2.001       .  S
Fe535       O546   1.891       .  S
Fe536       O539   2.016       .  S
Fe536       O543   2.145       .  S
Fe536       O547   2.041       .  S
Fe536       O552   2.161       .  S
Fe536       O546   1.901       .  S
Fe537       O555   2.146       .  S
Fe537       O542   2.013       .  S
Fe537       O549   2.027       .  S
Fe537       O538   2.150       .  S
Fe537       O546   1.917       .  S
O538        C545   1.281       .  A
O539        C553   1.258       .  A
O540        C545   1.243       .  A
O541      Fe1559   2.153   1_455  S
O541        C544   1.285       .  A
O542        C554   1.260       .  A
O543        C556   1.290       .  A
C544       O1573   1.264   1_455  A
C544        C885   1.502       .  S
C545        C955   1.478       .  S
O547        C550   1.263       .  A
O548        C550   1.278       .  A
O549       C1568   1.265       .  A
O551        C556   1.266       .  A
O552        C554   1.289       .  A
C553        O555   1.288       .  A
C553        C927   1.503       .  S
C554        C902   1.496       .  S
C556        C871   1.493       .  S
Fe557       O573   2.036       .  S
Fe557       O563   2.145       .  S
Fe557       O570   2.094       .  S
Fe557       O562   2.006       .  S
Fe557       O568   1.897       .  S
Fe558       O561   2.023       .  S
Fe558       O565   2.153       .  S
Fe558       O569   2.057       .  S
Fe558       O574   2.157       .  S
Fe558       O568   1.900       .  S
Fe559       O577   2.145       .  S
Fe559       O564   2.021       .  S
Fe559       O571   2.027       .  S
Fe559       O560   2.162       .  S
Fe559       O568   1.915       .  S
O560        C567   1.286       .  A
O561        C575   1.260       .  A
O562        C567   1.242       .  A
O563        C566   1.285       .  A
O564        C576   1.263       .  A
O565        C578   1.293       .  A
C566        O571   1.264       .  A
C566        C899   1.503       .  S
C567        C860   1.502       .  S
O569        C572   1.265       .  A
O570        C572   1.276       .  A
C572        C969   1.502       .  S
O573        C578   1.268       .  A
O574        C576   1.289       .  A
C575        O577   1.288       .  A
C575        C983   1.502       .  S
C576        C888   1.502       .  S
C578        C843   1.501       .  S
Fe579       O595   2.091       .  S
Fe579       O585   2.010       .  S
Fe579       O592   2.015       .  S
Fe579       O584   2.142       .  S
Fe579       O590   1.909       .  S
Fe580       O583   2.146       .  S
Fe580       O587   2.040       .  S
Fe580       O591   2.162       .  S
Fe580       O596   2.022       .  S
Fe580       O590   1.907       .  S
Fe581       O599   2.020       .  S
Fe581       O586   2.140       .  S
Fe581       O593   2.158       .  S
Fe581       O582   2.034       .  S
Fe581       O590   1.918       .  S
O582        C589   1.264       .  A
O583        C597   1.288       .  A
O584        C589   1.284       .  A
O585        C588   1.246       .  A
O586        C598   1.285       .  A
O587        C600   1.260       .  A
C588        O593   1.284       .  A
C588        C857   1.500       .  S
C589       C1000   1.505       .  S
O591        C594   1.294       .  A
O592        C594   1.266       .  A
C594        C832   1.498       .  S
O595        C600   1.273       .  A
O596        C598   1.262       .  A
C597        O599   1.265       .  A
C597       C1014   1.493       .  S
C598        C913   1.491       .  S
C600        C930   1.484       .  S
Fe601       O617   2.122       .  S
Fe601       O607   1.990       .  S
Fe601       O614   2.021       .  S
Fe601      O1630   2.133       .  S
Fe601       O612   1.907       .  S
Fe602       O605   2.157       .  S
Fe602       O609   2.021       .  S
Fe602       O613   2.150       .  S
Fe602       O618   2.021       .  S
Fe602       O612   1.912       .  S
Fe603       O621   2.021       .  S
Fe603       O608   2.151       .  S
Fe603       O615   2.157       .  S
Fe603      O1628   2.033       .  S
Fe603       O612   1.913       .  S
O604      Fe1627   2.038       .  S
O604        C611   1.263   1_655  A
O605        C619   1.289       .  A
O606      Fe1625   2.134   1_455  S
O606        C611   1.283       .  A
O607        C610   1.251       .  A
O608        C620   1.288       .  A
O609        C622   1.262       .  A
C610        O615   1.287       .  A
C610        C787   1.476       .  S
C611        C815   1.507       .  S
O613        C616   1.288       .  A
O614        C616   1.261       .  A
C616        C941   1.493       .  S
O617        C622   1.283       .  A
O618        C620   1.260       .  A
C619        O621   1.261       .  A
C619        C801   1.495       .  S
C620        C776   1.507       .  S
C622        C759   1.497       .  S
Fe623       O639   2.010       .  S
Fe623      O1653   2.140   1_455  S
Fe623       O636   2.128       .  S
Fe623       O628   1.985       .  S
Fe623       O634   1.902       .  S
Fe624       O627   2.034       .  S
Fe624       O631   2.162       .  S
Fe624       O635   2.029       .  S
Fe624       O640   2.147       .  S
Fe624       O634   1.923       .  S
Fe625       O643   2.140       .  S
Fe625       O630   2.021       .  S
Fe625       O637   2.029       .  S
Fe625       O626   2.158       .  S
Fe625       O634   1.903       .  S
O626        C633   1.286       .  A
O627        C641   1.268       .  A
O628        C633   1.249       .  A
O629      Fe1647   2.138       .  S
O629        C632   1.283       .  A
O630        C642   1.260       .  A
O631        C644   1.289       .  A
C632       O1661   1.257       .  A
C632        C706   1.504       .  S
C633        C790   1.476       .  S
O635        C638   1.263       .  A
O636        C638   1.284       .  A
O637       C1656   1.259   1_455  A
O639        C644   1.259       .  A
O640        C642   1.287       .  A
C641        O643   1.289       .  A
C641        C748   1.507       .  S
C642        C717   1.498       .  S
C644        C874   1.498       .  S
Fe645       O661   2.015       .  S
Fe645       O651   2.135       .  S
Fe645       O658   2.106       .  S
Fe645       O650   1.984       .  S
Fe645       O656   1.904       .  S
Fe646       O649   2.031       .  S
Fe646       O653   2.181       .  S
Fe646       O657   2.039       .  S
Fe646       O662   2.153       .  S
Fe646       O656   1.915       .  S
Fe647       O665   2.149       .  S
Fe647       O652   2.006       .  S
Fe647       O659   2.032       .  S
Fe647       O648   2.169       .  S
Fe647       O656   1.913       .  S
O648        C655   1.288       .  A
O649        C663   1.267       .  A
O650        C655   1.247       .  A
O651        C654   1.281       .  A
O652        C664   1.259       .  A
O653        C666   1.296       .  A
C654        O659   1.261       .  A
C654        C720   1.502       .  S
C655        C692   1.477       .  S
O657        C660   1.261       .  A
O658        C660   1.278       .  A
C660        C773   1.498       .  S
O661        C666   1.262       .  A
O662        C664   1.289       .  A
C663        O665   1.289       .  A
C663        C762   1.490       .  S
C664        C703   1.496       .  S
C666        C846   1.512       .  S
Fe667       O683   2.126       .  S
Fe667       O673   1.974       .  S
Fe667       O680   2.018       .  S
Fe667       O672   2.141       .  S
Fe667       O678   1.918       .  S
Fe668       O671   2.143       .  S
Fe668       O675   2.026       .  S
Fe668       O679   2.162       .  S
Fe668       O684   2.031       .  S
Fe668       O678   1.917       .  S
Fe669       O687   2.026       .  S
Fe669       O674   2.150       .  S
Fe669       O681   2.167       .  S
Fe669       O670   2.033       .  S
Fe669       O678   1.920       .  S
O670        C677   1.259       .  A
O671        C685   1.289       .  A
O672        C677   1.282       .  A
O673        C676   1.249       .  A
O674        C686   1.287       .  A
O675        C688   1.259       .  A
C676        O681   1.288       .  A
C676        C689   1.478       .  S
C677        C804   1.510       .  S
O679        C682   1.291       .  A
O680        C682   1.260       .  A
C682        C829   1.493       .  S
O683        C688   1.283       .  A
O684        C686   1.264       .  A
C685        O687   1.264       .  A
C685        C818   1.503       .  S
C686        C734   1.493       .  S
C688        C745   1.490       .  S
C689        C690   1.400       .  A
C689        C694   1.427       .  A
C690        C691   1.408       .  A
C690        C695   1.452       .  S
C691        C692   1.425       .  A
C691        C698   1.449       .  S
C692        C693   1.400       .  A
C693        C694   1.410       .  A
C693        C696   1.451       .  S
C694        C697   1.451       .  S
C695        N702   1.157       .  T
C696        N701   1.157       .  T
C697        N699   1.157       .  T
C698        N700   1.156       .  T
C703        C704   1.422       .  A
C703        C708   1.406       .  A
C704        C705   1.410       .  A
C704        C709   1.450       .  S
C705        C706   1.408       .  A
C705        C712   1.452       .  S
C706        C707   1.431       .  A
C707        C708   1.417       .  A
C707        C710   1.451       .  S
C708        C711   1.451       .  S
C709        N716   1.156       .  T
C710       N1739   1.157       .  T
C711        N713   1.157       .  T
C712        N714   1.158       .  T
N715       C1734   1.157       .  T
C717        C718   1.407       .  A
C717        C722   1.425       .  A
C718        C719   1.415       .  A
C718        C723   1.452       .  S
C719        C720   1.427       .  A
C719        C726   1.449       .  S
C720        C721   1.410       .  A
C721        C722   1.413       .  A
C721        C724   1.452       .  S
C722        C725   1.453       .  S
C723        N730   1.157       .  T
C724        N729   1.157       .  T
C725        N727   1.157       .  T
C726        N728   1.156       .  T
C731        C732   1.416       .  A
C731        C736   1.426       .  A
C732        C733   1.418       .  A
C732        C737   1.451       .  S
C733        C734   1.417       .  A
C733        C740   1.449       .  S
C734        C735   1.408       .  A
C735        C736   1.417       .  A
C735        C738   1.451       .  S
C737        N744   1.157       .  T
C738        N743   1.157       .  T
C739        N741   1.157       .  T
C740        N742   1.157       .  T
C745        C746   1.413       .  A
C745        C750   1.410       .  A
C746        C747   1.409       .  A
C746        C751   1.448       .  S
C747        C748   1.414       .  A
C747        C754   1.447       .  S
C748        C749   1.424       .  A
C749        C750   1.419       .  A
C749        C752   1.450       .  S
C750        C753   1.450       .  S
C751        N758   1.156       .  T
C752        N757   1.157       .  T
C753        N755   1.157       .  T
C754        N756   1.155       .  T
C759        C760   1.422       .  A
C760        C765   1.451       .  S
C761        C762   1.412       .  A
C761        C768   1.451       .  S
C762        C763   1.416       .  A
C763        C764   1.412       .  A
C763        C766   1.446       .  S
C764        C767   1.452       .  S
C765        N772   1.157       .  T
C766        N771   1.155       .  T
C767        N769   1.157       .  T
C768        N770   1.157       .  T
C773        C774   1.421       .  A
C773        C778   1.406       .  A
C774        C775   1.412       .  A
C774        C779   1.447       .  S
C775        C776   1.410       .  A
C775        C782   1.452       .  S
C776        C777   1.432       .  A
C777        C778   1.417       .  A
C777        C780   1.453       .  S
C778        C781   1.451       .  S
C779        N786   1.155       .  T
C780        N785   1.158       .  T
C781        N783   1.157       .  T
C782        N784   1.157       .  T
C787        C788   1.403       .  A
C787       C1816   1.423       .  A
C788       C1301   1.409       .  A
C788        C793   1.452       .  S
C789       C1300   1.409   1_565  A
C789        C790   1.423   1_655  A
C789        C796   1.449       .  S
C790        C791   1.401       .  A
C791        C794   1.452       .  S
C792       C1811   1.422   1_455  A
C792        C795   1.449       .  S
C793        N800   1.157       .  T
C794        N799   1.157       .  T
C795        N797   1.156       .  T
C796        N798   1.156       .  T
C801        C802   1.405       .  A
C801        C806   1.419       .  A
C802        C803   1.418       .  A
C802        C807   1.451       .  S
C803        C804   1.433       .  A
C803        C810   1.451       .  S
C804        C805   1.413       .  A
C805        C806   1.413       .  A
C805        C808   1.451       .  S
C806        C809   1.450       .  S
C807        N814   1.157       .  T
C808        N813   1.157       .  T
C809        N811   1.156       .  T
C810        N812   1.157       .  T
C815        C816   1.412       .  A
C815        C820   1.427       .  A
C816        C817   1.416       .  A
C816        C821   1.452       .  S
C817        C818   1.425       .  A
C817        C824   1.452       .  S
C818        C819   1.409       .  A
C819        C820   1.416       .  A
C819        C822   1.452       .  S
C820        C823   1.450       .  S
C821        N828   1.158       .  T
C822        N827   1.158       .  T
C823       N1849   1.157   1_455  T
C824        N826   1.157       .  T
N825       C1847   1.156       .  T
C829        C830   1.418       .  A
C829        C834   1.411       .  A
C830        C831   1.421       .  A
C830        C835   1.448       .  S
C831        C832   1.412       .  A
C831        C838   1.449       .  S
C832        C833   1.418       .  A
C833        C834   1.413       .  A
C833        C836   1.452       .  S
C834        C837   1.451       .  S
C835        N842   1.157       .  T
C836        N841   1.157       .  T
C837        N839   1.157       .  T
C838        N840   1.157       .  T
C843        C844   1.406       .  A
C843        C848   1.422       .  A
C844        C845   1.413       .  A
C844        C849   1.452       .  S
C845        C846   1.428       .  A
C845        C852   1.451       .  S
C846        C847   1.413       .  A
C847        C848   1.425       .  A
C847        C850   1.449       .  S
C848        C851   1.449       .  S
C849        N856   1.157       .  T
C850        N855   1.157       .  T
C851        N853   1.158       .  T
C852        N854   1.157       .  T
C857        C858   1.434       .  A
C857        C862   1.403   1_554  A
C858        C859   1.412       .  A
C858        C863   1.451       .  S
C859        C860   1.404   1_554  A
C859        C866   1.454       .  S
C860        C861   1.437       .  A
C861        C862   1.411       .  A
C861        C864   1.453       .  S
C862        C865   1.454       .  S
C863        N870   1.157       .  T
C864        N869   1.157       .  T
C865        N867   1.157       .  T
C866        N868   1.157       .  T
C871       C1896   1.420       .  A
C871        C876   1.407       .  A
C872       C1895   1.418   1_455  A
C872        C873   1.418       .  A
C872        C877   1.451       .  S
C873        C874   1.411       .  A
C873        C880   1.448       .  S
C874       C1899   1.425       .  A
C875       C1898   1.427       .  A
C875        C876   1.411       .  A
C875        C878   1.454       .  S
C876        C879   1.453       .  S
C877        N884   1.157       .  T
C878        N883   1.157       .  T
C879        N881   1.157       .  T
C880        N882   1.157       .  T
C885        C886   1.408       .  A
C885        C890   1.426   1_554  A
C886        C887   1.417       .  A
C886        C891   1.451       .  S
C887        C888   1.426   1_554  A
C887        C894   1.452       .  S
C888        C889   1.409       .  A
C889        C890   1.417       .  A
C889        C892   1.451       .  S
C890        C893   1.452       .  S
C891        N898   1.158       .  T
C892        N897   1.158       .  T
C893       N1919   1.157   1_455  T
C894        N896   1.157       .  T
N895       C1917   1.157       .  T
C899        C900   1.417       .  A
C899        C904   1.416       .  A
C900        C901   1.414       .  A
C900        C905   1.452       .  S
C901        C902   1.420   1_556  A
C901        C908   1.453   1_556  S
C902        C903   1.413       .  A
C903        C904   1.415   1_554  A
C903        C906   1.448       .  S
C904        C907   1.447       .  S
C905        N912   1.157       .  T
C906        N911   1.156       .  T
C907        N909   1.156       .  T
C908        N910   1.157       .  T
C913        C914   1.403       .  A
C913        C918   1.419       .  A
C914        C915   1.417       .  A
C914        C919   1.452       .  S
C915        C916   1.433       .  A
C916        C917   1.418       .  A
C917        C918   1.413       .  A
C917        C920   1.452       .  S
C918        C921   1.454       .  S
C919        N926   1.157       .  T
C920        N925   1.158       .  T
C921        N923   1.157       .  T
C922        N924   1.157       .  T
C927        C928   1.413       .  A
C927        C932   1.434       .  A
C928        C929   1.412       .  A
C928        C933   1.452       .  S
C929        C930   1.418       .  A
C929        C936   1.449       .  S
C930        C931   1.402       .  A
C931        C932   1.410       .  A
C931        C934   1.454       .  S
C932        C935   1.453       .  S
C933        N940   1.158       .  T
C934        N939   1.157       .  T
C935        N937   1.158       .  T
C936        N938   1.156       .  T
C941       C1966   1.419       .  A
C941        C946   1.410       .  A
C942       C1965   1.417   1_455  A
C942        C943   1.418       .  A
C942        C947   1.453       .  S
C943        C944   1.413       .  A
C943        C950   1.447       .  S
C944       C1969   1.418       .  A
C945       C1968   1.422       .  A
C945        C946   1.413       .  A
C945        C948   1.454       .  S
C946        C949   1.451       .  S
C947        N954   1.155       .  T
C948        N953   1.155       .  T
C949        N951   1.159       .  T
C950        N952   1.160       .  T
C955       C1980   1.429   1_565  A
C956       C1979   1.430   1_455  A
C956        C961   1.452       .  S
C957        C958   1.399   1_554  A
C957        C964   1.452       .  S
C958       C1983   1.429   1_455  A
C959       C1982   1.428       .  A
C959        C960   1.406       .  A
C959        C962   1.449       .  S
C960        C963   1.453       .  S
C961        N968   1.158       .  T
C962        N967   1.157       .  T
C963        N965   1.157       .  T
C964        N966   1.157       .  T
C969        C970   1.424       .  A
C969        C974   1.411       .  A
C970        C971   1.415       .  A
C970        C975   1.447       .  S
C971        C972   1.410       .  A
C971        C978   1.453       .  S
C972        C973   1.427       .  A
C973        C974   1.414       .  A
C973        C976   1.453       .  S
C974        C977   1.452       .  S
C975        N982   1.156       .  T
C976        N981   1.157       .  T
C977        N979   1.157       .  T
C978        N980   1.158       .  T
C983        C984   1.411       .  A
C983        C988   1.432       .  A
C984        C989   1.451       .  S
C985        C986   1.419       .  A
C985        C992   1.450       .  S
C987        C988   1.412       .  A
C987        C990   1.452       .  S
C988        C991   1.454       .  S
C989        N996   1.158       .  T
C990        N995   1.158   1_565  T
C991        N993   1.157       .  T
C992        N994   1.156       .  T
C997        C998   1.420   1_556  A
C997       C1002   1.405       .  A
C998        C999   1.415       .  A
C998       C1003   1.451       .  S
C999       C1000   1.413       .  A
C999       C1006   1.452       .  S
C1000      C1001   1.429       .  A
C1001      C1002   1.415   1_554  A
C1001      C1004   1.450   1_554  S
C1002      C1005   1.451       .  S
C1003      N1010   1.157       .  T
C1004      N1009   1.157       .  T
C1005      N1007   1.157       .  T
C1006      N1008   1.158       .  T
C1011      C1012   1.410       .  A
C1011      C1016   1.427       .  A
C1012      C1013   1.411       .  A
C1012      C1017   1.452       .  S
C1013      C1014   1.420   1_556  A
C1013      C1020   1.451       .  S
C1014      C1015   1.407       .  A
C1015      C1016   1.416   1_554  A
C1015      C1018   1.451       .  S
C1016      C1019   1.452   1_556  S
C1017      N1024   1.157       .  T
C1018      N1023   1.157       .  T
C1019      N2045   1.157       .  T
C1020      N1022   1.156       .  T
N1021      C2043   1.157       .  T
Fe1025     O1041   2.092       .  S
Fe1025     O1031   1.998       .  S
Fe1025     O1038   2.009       .  S
Fe1025     O1036   1.906       .  S
Fe1026     O1029   2.140       .  S
Fe1026     O1033   2.045       .  S
Fe1026     O1037   2.149       .  S
Fe1026     O1042   2.026       .  S
Fe1026     O1036   1.905       .  S
Fe1027     O1045   2.021       .  S
Fe1027     O1032   2.133       .  S
Fe1027     O1039   2.160       .  S
Fe1027     O1028   2.036       .  S
Fe1027     O1036   1.923       .  S
O1029      C1043   1.286       .  A
O1030      C1035   1.282       .  A
O1031      C1034   1.245       .  A
O1032      C1044   1.286       .  A
O1033      C1046   1.262       .  A
C1034      O1039   1.284       .  A
C1034      C1470   1.480       .  S
C1035      C1523   1.507       .  S
O1037      C1040   1.290       .  A
O1038      C1040   1.265       .  A
C1040      C1456   1.490       .  S
O1041      C1046   1.273       .  A
O1042      C1044   1.263       .  A
C1043      O1045   1.265       .  A
C1043      C1509   1.488       .  S
C1044      C1484   1.497       .  S
C1046      C1498   1.489       .  S
Fe1047     O1063   2.025       .  S
Fe1047     O1060   2.108       .  S
Fe1047     O1052   2.000       .  S
Fe1047     O1058   1.897       .  S
Fe1048     O1051   2.022       .  S
Fe1048     O1055   2.153       .  S
Fe1048     O1059   2.048       .  S
Fe1048     O1064   2.156       .  S
Fe1048     O1058   1.900       .  S
Fe1049     O1067   2.149       .  S
Fe1049     O1054   2.019       .  S
Fe1049     O1061   2.028       .  S
Fe1049     O1050   2.158       .  S
Fe1049     O1058   1.918       .  S
O1050      C1057   1.284       .  A
O1051      C1065   1.260       .  A
O1052      C1057   1.247       .  A
O1053      C1056   1.288       .  A
O1054      C1066   1.260       .  A
O1055      C1068   1.292       .  A
C1056      C1397   1.498       .  S
C1057      C1467   1.480       .  S
O1059      C1062   1.263       .  A
O1060      C1062   1.278       .  A
C1062      C1940   1.520       .  S
O1063      C1068   1.265       .  A
O1064      C1066   1.289       .  A
C1065      O1067   1.288       .  A
C1065      C1439   1.503       .  S
C1066      C1414   1.488       .  S
C1068      C1383   1.498       .  S
Fe1069     O1085   2.040       .  S
Fe1069     O1075   2.131       .  S
Fe1069     O1082   2.105       .  S
Fe1069     O1074   2.007       .  S
Fe1069     O1080   1.904       .  S
Fe1070     O1073   2.027       .  S
Fe1070     O1077   2.151       .  S
Fe1070     O1081   2.046       .  S
Fe1070     O1086   2.162       .  S
Fe1070     O1080   1.912       .  S
Fe1071     O1089   2.151       .  S
Fe1071     O1076   2.023       .  S
Fe1071     O1083   2.024       .  S
Fe1071     O1072   2.147       .  S
Fe1071     O1080   1.915       .  S
O1072      C1079   1.284       .  A
O1073      C1087   1.262       .  A
O1074      C1079   1.252       .  A
O1075      C1078   1.285       .  A
O1076      C1088   1.261       .  A
O1077      C1090   1.289       .  A
C1078      O1083   1.264       .  A
C1078      C1411   1.512       .  S
C1079      C1372   1.499       .  S
O1081      C1084   1.267       .  A
O1082      C1084   1.281       .  A
C1084      C1481   1.505       .  S
O1085      C1090   1.264       .  A
O1086      C1088   1.288       .  A
C1087      O1089   1.288       .  A
C1087      C1495   1.510       .  S
C1088      C1400   1.509       .  S
C1090      C1355   1.503       .  S
Fe1091     O1107   2.093       .  S
Fe1091     O1097   2.002       .  S
Fe1091     O1104   2.022       .  S
Fe1091     O1096   2.140       .  S
Fe1091     O1102   1.910       .  S
Fe1092     O1095   2.147       .  S
Fe1092     O1099   2.052       .  S
Fe1092     O1103   2.158       .  S
Fe1092     O1108   2.030       .  S
Fe1092     O1102   1.905       .  S
Fe1093     O1111   2.023       .  S
Fe1093     O1098   2.143       .  S
Fe1093     O1105   2.174       .  S
Fe1093     O1094   2.033       .  S
Fe1093     O1102   1.925       .  S
O1094      C1101   1.262       .  A
O1095      C1109   1.288       .  A
O1096      C1101   1.284       .  A
O1097      C1100   1.246       .  A
O1098      C1110   1.285       .  A
O1099      C1112   1.263       .  A
C1100      O1105   1.285       .  A
C1100      C1369   1.509       .  S
C1101      C1512   1.504       .  S
O1103      C1106   1.293       .  A
O1104      C1106   1.268       .  A
C1106      C1344   1.500       .  S
O1107      C1112   1.273       .  A
O1108      C1110   1.263       .  A
C1109      O1111   1.266       .  A
C1109      C1526   1.496       .  S
C1110      C1425   1.496       .  S
C1112      C1442   1.494       .  S
Fe1113     O1129   2.120       .  S
Fe1113     O1119   1.990       .  S
Fe1113     O1126   2.018       .  S
Fe1113     O1124   1.901       .  S
Fe1114     O1117   2.157       .  S
Fe1114     O1121   2.025       .  S
Fe1114     O1125   2.150       .  S
Fe1114     O1130   2.019       .  S
Fe1114     O1124   1.908       .  S
Fe1115     O1133   2.018       .  S
Fe1115     O1120   2.146       .  S
Fe1115     O1127   2.157       .  S
Fe1115     O1124   1.913       .  S
O1116      C1123   1.263       .  A
O1117      C1131   1.290       .  A
O1118      C1123   1.280       .  A
O1119      C1122   1.250       .  A
O1120      C1132   1.287       .  A
O1121      C1134   1.263       .  A
C1122      O1127   1.286       .  A
C1122      C1299   1.476       .  S
C1123      C1327   1.505       .  S
O1125      C1128   1.288       .  A
O1126      C1128   1.261       .  A
C1128      C1453   1.491       .  S
O1129      C1134   1.282       .  A
O1130      C1132   1.259       .  A
C1131      O1133   1.261       .  A
C1131      C1313   1.497       .  S
C1132      C1288   1.506       .  S
C1134      C1271   1.496       .  S
Fe1135     O1151   2.012       .  S
Fe1135     O1148   2.126       .  S
Fe1135     O1140   1.990       .  S
Fe1135     O1146   1.904       .  S
Fe1136     O1139   2.031       .  S
Fe1136     O1143   2.174       .  S
Fe1136     O1147   2.030       .  S
Fe1136     O1152   2.152       .  S
Fe1136     O1146   1.920       .  S
Fe1137     O1155   2.133       .  S
Fe1137     O1142   2.022       .  S
Fe1137     O1149   2.029       .  S
Fe1137     O1138   2.154       .  S
Fe1137     O1146   1.905       .  S
O1138      C1145   1.287       .  A
O1139      C1153   1.268       .  A
O1140      C1145   1.253       .  A
O1141      C1144   1.281       .  A
O1142      C1154   1.261       .  A
O1143      C1156   1.291       .  A
C1144      C1218   1.503       .  S
C1145      C1302   1.475       .  S
O1147      C1150   1.263       .  A
O1148      C1150   1.283       .  A
C1150      C1755   1.509       .  S
O1151      C1156   1.257       .  A
O1152      C1154   1.289       .  A
C1153      O1155   1.287       .  A
C1153      C1260   1.503       .  S
C1154      C1229   1.502       .  S
C1156      C1386   1.504       .  S
Fe1157     O1173   2.013       .  S
Fe1157     O1163   2.133       .  S
Fe1157     O1170   2.106       .  S
Fe1157     O1162   1.982       .  S
Fe1157     O1168   1.906       .  S
Fe1158     O1161   2.030       .  S
Fe1158     O1165   2.181       .  S
Fe1158     O1169   2.031       .  S
Fe1158     O1174   2.153       .  S
Fe1158     O1168   1.915       .  S
Fe1159     O1177   2.145       .  S
Fe1159     O1164   2.008       .  S
Fe1159     O1171   2.031       .  S
Fe1159     O1160   2.167       .  S
Fe1159     O1168   1.913       .  S
O1160      C1167   1.288       .  A
O1161      C1175   1.266       .  A
O1162      C1167   1.248       .  A
O1163      C1166   1.281       .  A
O1164      C1176   1.260       .  A
O1165      C1178   1.295       .  A
C1166      O1171   1.260       .  A
C1166      C1232   1.502       .  S
C1167      C1204   1.476       .  S
O1169      C1172   1.260       .  A
O1170      C1172   1.278       .  A
C1172      C1285   1.493       .  S
O1173      C1178   1.262       .  A
O1174      C1176   1.290       .  A
C1175      O1177   1.287       .  A
C1175      C1274   1.487       .  S
C1176      C1215   1.501       .  S
C1178      C1358   1.509       .  S
Fe1179     O1195   2.128       .  S
Fe1179     O1185   1.978       .  S
Fe1179     O1192   2.026       .  S
Fe1179     O1184   2.141       .  S
Fe1179     O1190   1.918       .  S
Fe1180     O1183   2.142       .  S
Fe1180     O1187   2.022       .  S
Fe1180     O1191   2.157       .  S
Fe1180     O1196   2.028       .  S
Fe1180     O1190   1.918       .  S
Fe1181     O1199   2.028       .  S
Fe1181     O1186   2.144       .  S
Fe1181     O1193   2.163       .  S
Fe1181     O1182   2.031       .  S
Fe1181     O1190   1.921       .  S
O1182      C1189   1.259       .  A
O1183      C1197   1.289       .  A
O1184      C1189   1.283       .  A
O1185      C1188   1.251       .  A
O1186      C1198   1.285       .  A
O1187      C1200   1.259       .  A
C1188      O1193   1.286       .  A
C1188      C1201   1.478       .  S
C1189      C1316   1.507       .  S
O1191      C1194   1.289       .  A
O1192      C1194   1.261       .  A
C1194      C1341   1.495       .  S
O1195      C1200   1.284       .  A
O1196      C1198   1.264       .  A
C1197      O1199   1.264       .  A
C1197      C1330   1.504       .  S
C1198      C1246   1.488       .  S
C1200      C1257   1.489       .  S
C1201      C1202   1.401       .  A
C1201      C1206   1.425       .  A
C1202      C1203   1.409       .  A
C1202      C1207   1.451       .  S
C1203      C1204   1.425       .  A
C1203      C1210   1.452       .  S
C1204      C1205   1.401       .  A
C1205      C1206   1.410       .  A
C1205      C1208   1.451       .  S
C1206      C1209   1.451       .  S
C1207      N1214   1.157       .  T
C1208      N1213   1.157       .  T
C1209      N1211   1.157       .  T
C1210      N1212   1.157       .  T
C1215      C1216   1.425       .  A
C1215      C1220   1.407       .  A
C1216      C1217   1.412       .  A
C1216      C1221   1.450       .  S
C1217      C1218   1.407       .  A
C1217      C1224   1.452       .  S
C1218      C1219   1.429       .  A
C1219      C1220   1.416       .  A
C1219      C1222   1.450   1_655  S
C1220      C1223   1.451       .  S
C1221      N1228   1.156       .  T
C1223      N1225   1.157       .  T
C1224      N1226   1.158       .  T
C1229      C1230   1.408       .  A
C1229      C1234   1.427       .  A
C1230      C1231   1.415       .  A
C1230      C1235   1.450       .  S
C1231      C1232   1.426       .  A
C1231      C1238   1.450       .  S
C1232      C1233   1.409       .  A
C1233      C1234   1.414       .  A
C1233      C1236   1.452       .  S
C1234      C1237   1.451       .  S
C1235      N1242   1.157       .  T
C1236      N1241   1.157       .  T
C1237      N1239   1.157       .  T
C1238      N1240   1.157       .  T
C1243      C1662   1.505   1_545  S
C1243      C1244   1.415       .  A
C1243      C1248   1.425       .  A
C1244      C1245   1.415       .  A
C1244      C1249   1.451       .  S
C1245      C1246   1.415       .  A
C1245      C1252   1.448       .  S
C1246      C1247   1.407       .  A
C1247      C1248   1.415       .  A
C1247      C1250   1.451       .  S
C1248      C1763   1.451   1_545  S
C1249      N1256   1.157       .  T
C1250      N1255   1.157       .  T
C1251      C1760   1.451       .  S
C1251      N1253   1.157       .  T
C1252      N1254   1.156       .  T
C1257      C1258   1.415       .  A
C1257      C1262   1.410       .  A
C1258      C1259   1.411       .  A
C1258      C1263   1.448       .  S
C1259      C1260   1.414       .  A
C1259      C1266   1.449       .  S
C1260      C1261   1.422       .  A
C1261      C1262   1.417       .  A
C1261      C1264   1.451       .  S
C1262      C1265   1.450       .  S
C1263      N1270   1.156       .  T
C1264      N1269   1.157       .  T
C1265      N1267   1.157       .  T
C1266      N1268   1.156       .  T
C1271      C1272   1.421       .  A
C1271      C1788   1.412   1_545  A
C1272      C1785   1.415   1_545  A
C1272      C1277   1.451       .  S
C1273      C1784   1.415       .  A
C1273      C1274   1.409       .  A
C1273      C1280   1.451       .  S
C1274      C1275   1.416       .  A
C1275      C1276   1.412       .  A
C1275      C1278   1.447       .  S
C1276      C1783   1.412       .  A
C1276      C1279   1.452       .  S
C1277      N1284   1.157       .  T
C1278      N1283   1.156       .  T
C1279      N1281   1.157       .  T
C1280      N1282   1.157       .  T
C1285      C1286   1.420       .  A
C1285      C1290   1.404       .  A
C1286      C1287   1.411       .  A
C1286      C1291   1.448       .  S
C1287      C1288   1.411       .  A
C1287      C1294   1.452       .  S
C1288      C1289   1.434       .  A
C1289      C1290   1.415       .  A
C1289      C1292   1.453       .  S
C1290      C1293   1.452       .  S
C1291      N1298   1.155       .  T
C1292      N1297   1.158       .  T
C1293      N1295   1.157       .  T
C1294      N1296   1.157       .  T
C1299      C1300   1.403       .  A
C1300      C1305   1.452       .  S
C1301      C1302   1.422       .  A
C1301      C1308   1.449       .  S
C1302      C1303   1.401       .  A
C1303      C1816   1.410       .  A
C1303      C1306   1.452       .  S
C1304      C1815   1.411   1_545  A
C1304      C1307   1.450       .  S
C1305      N1312   1.157       .  T
C1306      N1311   1.157       .  T
C1307      N1309   1.157       .  T
C1308      N1310   1.157       .  T
C1313      C1314   1.405       .  A
C1313      C1318   1.423       .  A
C1314      C1315   1.417       .  A
C1314      C1319   1.452       .  S
C1315      C1316   1.431       .  A
C1315      C1322   1.451       .  S
C1316      C1317   1.411       .  A
C1317      C1318   1.414       .  A
C1317      C1320   1.452       .  S
C1318      C1321   1.451       .  S
C1319      N1326   1.157       .  T
C1320      N1325   1.158       .  T
C1321      N1323   1.157       .  T
C1322      N1324   1.157       .  T
C1327      C1328   1.411       .  A
C1327      C1332   1.425       .  A
C1328      C1329   1.416       .  A
C1328      C1333   1.451       .  S
C1329      C1330   1.425       .  A
C1329      C1336   1.452       .  S
C1330      C1331   1.410       .  A
C1331      C1332   1.415       .  A
C1331      C1334   1.452       .  S
C1332      C1335   1.449       .  S
C1333      N1340   1.158       .  T
C1334      N1339   1.158       .  T
C1336      N1338   1.157       .  T
C1341      C1342   1.417       .  A
C1341      C1346   1.412       .  A
C1342      C1343   1.421       .  A
C1342      C1347   1.449       .  S
C1343      C1344   1.413       .  A
C1343      C1350   1.450       .  S
C1344      C1345   1.419       .  A
C1345      C1346   1.415       .  A
C1345      C1348   1.453       .  S
C1346      C1349   1.450       .  S
C1347      N1354   1.157       .  T
C1348      N1353   1.158       .  T
C1349      N1351   1.157       .  T
C1350      N1352   1.157       .  T
C1355      C1356   1.408       .  A
C1355      C1360   1.422       .  A
C1356      C1357   1.414       .  A
C1356      C1361   1.451       .  S
C1357      C1358   1.425       .  A
C1357      C1364   1.453       .  S
C1358      C1359   1.412       .  A
C1359      C1360   1.425       .  A
C1359      C1362   1.449       .  S
C1360      C1363   1.449       .  S
C1361      N1368   1.157       .  T
C1362      N1367   1.157       .  T
C1363      N1365   1.158       .  T
C1364      N1366   1.158       .  T
C1369      C1370   1.431       .  A
C1369      C1374   1.411   1_554  A
C1370      C1371   1.411       .  A
C1370      C1375   1.452       .  S
C1371      C1372   1.406   1_554  A
C1371      C1378   1.452       .  S
C1372      C1373   1.424       .  A
C1373      C1374   1.415       .  A
C1373      C1376   1.452       .  S
C1374      C1377   1.447       .  S
C1375      N1382   1.154       .  T
C1376      N1381   1.155       .  T
C1377      N1379   1.158       .  T
C1378      N1380   1.159       .  T
C1383      C1388   1.407       .  A
C1384      C1385   1.422       .  A
C1384      C1389   1.450       .  S
C1385      C1386   1.411       .  A
C1385      C1392   1.448       .  S
C1387      C1388   1.412   1_455  A
C1387      C1390   1.454   1_455  S
C1388      C1391   1.453       .  S
C1389      N1396   1.157       .  T
C1390      N1395   1.157       .  T
C1391      N1393   1.157       .  T
C1392      N1394   1.157       .  T
C1397      C1398   1.405       .  A
C1397      C1402   1.423   1_554  A
C1398      C1399   1.417       .  A
C1398      C1403   1.451       .  S
C1399      C1400   1.429   1_554  A
C1399      C1406   1.452       .  S
C1400      C1401   1.411       .  A
C1401      C1402   1.418       .  A
C1401      C1404   1.450       .  S
C1402      C1405   1.452       .  S
C1403      N1410   1.158       .  T
C1404      N1409   1.158       .  T
C1406      N1408   1.157       .  T
C1411      C1412   1.428       .  A
C1411      C1416   1.419       .  A
C1412      C1413   1.416   1_556  A
C1412      C1417   1.452       .  S
C1413      C1414   1.408       .  A
C1413      C1420   1.451       .  S
C1414      C1415   1.415       .  A
C1415      C1416   1.414   1_554  A
C1415      C1418   1.448       .  S
C1416      C1419   1.452       .  S
C1417      N1424   1.157       .  T
C1418      N1423   1.156       .  T
C1419      N1421   1.158       .  T
C1420      N1422   1.157       .  T
C1425      C1426   1.406       .  A
C1425      C1430   1.420       .  A
C1426      C1427   1.418   1_545  A
C1426      C1431   1.451       .  S
C1427      C1428   1.431       .  A
C1427      C1946   1.451       .  S
C1428      C1574   1.517       .  S
C1428      C1429   1.418   1_565  A
C1429      C1430   1.414       .  A
C1429      C1432   1.452       .  S
C1430      C1433   1.454       .  S
C1431      N1438   1.157       .  T
C1432      N1437   1.158       .  T
C1433      N1435   1.157       .  T
C1434      C1939   1.451       .  S
C1434      N1436   1.158       .  T
C1439      C1440   1.411       .  A
C1439      C1444   1.430       .  A
C1440      C1441   1.414       .  A
C1440      C1445   1.451       .  S
C1441      C1442   1.420       .  A
C1441      C1448   1.449       .  S
C1442      C1443   1.407       .  A
C1443      C1444   1.412       .  A
C1443      C1446   1.452       .  S
C1444      C1447   1.453       .  S
C1445      N1452   1.158       .  T
C1446      N1451   1.157       .  T
C1447      N1449   1.158       .  T
C1448      N1450   1.156       .  T
C1453      C1458   1.410       .  A
C1454      C1455   1.415       .  A
C1454      C1459   1.453       .  S
C1455      C1456   1.412       .  A
C1455      C1462   1.448       .  S
C1457      C1458   1.413   1_455  A
C1457      C1460   1.453   1_455  S
C1458      C1461   1.450       .  S
C1459      N1466   1.155       .  T
C1460      N1465   1.155       .  T
C1461      N1463   1.159       .  T
C1462      N1464   1.159       .  T
C1467      C1984   1.399   1_554  A
C1468      C1981   1.408       .  A
C1468      C1473   1.452       .  S
C1469      C1980   1.408       .  A
C1469      C1470   1.398   1_554  A
C1469      C1476   1.452       .  S
C1471      C1472   1.408   1_545  A
C1471      C1474   1.450       .  S
C1472      C1979   1.399   1_556  A
C1472      C1475   1.453       .  S
C1473      N1480   1.158       .  T
C1474      N1479   1.157       .  T
C1475      N1477   1.157       .  T
C1476      N1478   1.157       .  T
C1481      C1482   1.427       .  A
C1481      C1486   1.414       .  A
C1482      C1483   1.414       .  A
C1482      C1487   1.448       .  S
C1483      C1484   1.406       .  A
C1483      C1490   1.453       .  S
C1484      C1485   1.424       .  A
C1485      C1486   1.414       .  A
C1485      C1488   1.453       .  S
C1486      C1489   1.451       .  S
C1487      N1494   1.155       .  T
C1488      N1493   1.157       .  T
C1489      N1491   1.157       .  T
C1490      N1492   1.157       .  T
C1495      C1496   1.415       .  A
C1495      C1500   1.434       .  A
C1496      C2009   1.414       .  A
C1496      C1501   1.451       .  S
C1497      C2008   1.412   1_545  A
C1497      C1498   1.417       .  A
C1497      C1504   1.451       .  S
C1498      C2011   1.405   1_545  A
C1499      C2010   1.404       .  A
C1499      C1500   1.415       .  A
C1499      C1502   1.452       .  S
C1500      C1503   1.453       .  S
C1501      N1508   1.158       .  T
C1502      N1507   1.158       .  T
C1503      N1505   1.157       .  T
C1504      N1506   1.157       .  T
C1509      C1510   1.417   1_556  A
C1509      C1514   1.405       .  A
C1510      C1511   1.413       .  A
C1510      C1515   1.452       .  S
C1511      C1512   1.413       .  A
C1511      C1518   1.451       .  S
C1512      C1513   1.430       .  A
C1513      C1514   1.415   1_554  A
C1513      C1516   1.452   1_554  S
C1514      C1517   1.451       .  S
C1515      N1522   1.157       .  T
C1516      N1521   1.157       .  T
C1517      N1519   1.157       .  T
C1518      N1520   1.157       .  T
C1523      C1524   1.414       .  A
C1523      C1528   1.429   1_556  A
C1524      C1525   1.414       .  A
C1524      C1529   1.451       .  S
C1525      C1526   1.419   1_556  A
C1525      C1532   1.452       .  S
C1526      C1527   1.406       .  A
C1527      C1528   1.417       .  A
C1527      C1530   1.451       .  S
C1528      C1531   1.450   1_655  S
C1529      N1536   1.157       .  T
C1530      N1535   1.158       .  T
C1532      N1534   1.157       .  T
Fe1537     O1553   2.100       .  S
Fe1537     O1543   1.996       .  S
Fe1537     O1550   2.011       .  S
Fe1537     O1548   1.910       .  S
Fe1538     O1541   2.146       .  S
Fe1538     O1545   2.046       .  S
Fe1538     O1549   2.164       .  S
Fe1538     O1554   2.029       .  S
Fe1538     O1548   1.908       .  S
Fe1539     O1557   2.022       .  S
Fe1539     O1544   2.135       .  S
Fe1539     O1551   2.159       .  S
Fe1539     O1540   2.033       .  S
Fe1539     O1548   1.927       .  S
O1541      C1555   1.288       .  A
O1542      C1547   1.281       .  A
O1543      C1546   1.246       .  A
O1544      C1556   1.286       .  A
O1545      C1558   1.262       .  A
C1546      O1551   1.284       .  A
C1546      C1982   1.479       .  S
C1547      C2035   1.500       .  S
O1549      C1552   1.293       .  A
O1550      C1552   1.265       .  A
C1552      C1968   1.502       .  S
O1553      C1558   1.274       .  A
O1554      C1556   1.265       .  A
C1555      O1557   1.264       .  A
C1555      C2021   1.491       .  S
C1556      C1996   1.497       .  S
C1558      C2010   1.490       .  S
Fe1559     O1575   2.023       .  S
Fe1559     O1572   2.107       .  S
Fe1559     O1564   2.002       .  S
Fe1559     O1570   1.900       .  S
Fe1560     O1563   2.024       .  S
Fe1560     O1567   2.140       .  S
Fe1560     O1571   2.045       .  S
Fe1560     O1576   2.153       .  S
Fe1560     O1570   1.902       .  S
Fe1561     O1579   2.152       .  S
Fe1561     O1566   2.020       .  S
Fe1561     O1573   2.031       .  S
Fe1561     O1562   2.161       .  S
Fe1561     O1570   1.920       .  S
O1562      C1569   1.284       .  A
O1563      C1577   1.259       .  A
O1564      C1569   1.245       .  A
O1565      C1568   1.286       .  A
O1566      C1578   1.262       .  A
O1567      C1580   1.289       .  A
C1568      C1909   1.495       .  S
C1569      C1979   1.483       .  S
O1571      C1574   1.263       .  A
O1572      C1574   1.278       .  A
O1575      C1580   1.265       .  A
O1576      C1578   1.289       .  A
C1577      O1579   1.289       .  A
C1577      C1951   1.506       .  S
C1578      C1926   1.488       .  S
C1580      C1895   1.488       .  S
Fe1581     O1597   2.041       .  S
Fe1581     O1587   2.123       .  S
Fe1581     O1594   2.101       .  S
Fe1581     O1586   2.008       .  S
Fe1581     O1592   1.905       .  S
Fe1582     O1585   2.031       .  S
Fe1582     O1589   2.153       .  S
Fe1582     O1593   2.054       .  S
Fe1582     O1598   2.154       .  S
Fe1582     O1592   1.914       .  S
Fe1583     O1601   2.144       .  S
Fe1583     O1588   2.023       .  S
Fe1583     O1595   2.030       .  S
Fe1583     O1584   2.147       .  S
Fe1583     O1592   1.920       .  S
O1584      C1591   1.285       .  A
O1585      C1599   1.264       .  A
O1586      C1591   1.252       .  A
O1587      C1590   1.284       .  A
O1588      C1600   1.262       .  A
O1589      C1602   1.290       .  A
C1590      O1595   1.265       .  A
C1590      C1923   1.506       .  S
C1591      C1884   1.504       .  S
O1593      C1596   1.267       .  A
O1594      C1596   1.280       .  A
C1596      C1993   1.510       .  S
O1597      C1602   1.265       .  A
O1598      C1600   1.286       .  A
C1599      O1601   1.287       .  A
C1599      C2007   1.502       .  S
C1600      C1912   1.504       .  S
C1602      C1867   1.507       .  S
Fe1603     O1619   2.102       .  S
Fe1603     O1609   1.999       .  S
Fe1603     O1616   2.016       .  S
Fe1603     O1608   2.146       .  S
Fe1603     O1614   1.903       .  S
Fe1604     O1607   2.150       .  S
Fe1604     O1611   2.044       .  S
Fe1604     O1615   2.167       .  S
Fe1604     O1620   2.027       .  S
Fe1604     O1614   1.905       .  S
Fe1605     O1623   2.016       .  S
Fe1605     O1610   2.151       .  S
Fe1605     O1617   2.177       .  S
Fe1605     O1606   2.029       .  S
Fe1605     O1614   1.918       .  S
O1606      C1613   1.260       .  A
O1607      C1621   1.288       .  A
O1608      C1613   1.285       .  A
O1609      C1612   1.243       .  A
O1610      C1622   1.288       .  A
O1611      C1624   1.261       .  A
C1612      O1617   1.287       .  A
C1612      C1881   1.514       .  S
C1613      C2024   1.512       .  S
O1615      C1618   1.295       .  A
O1616      C1618   1.266       .  A
C1618      C1856   1.501       .  S
O1619      C1624   1.276       .  A
O1620      C1622   1.263       .  A
C1621      O1623   1.263       .  A
C1621      C2038   1.496       .  S
C1622      C1937   1.493       .  S
C1624      C1954   1.497       .  S
Fe1625     O1641   2.123       .  S
Fe1625     O1631   1.991       .  S
Fe1625     O1638   2.019       .  S
Fe1625     O1636   1.903       .  S
Fe1626     O1629   2.156       .  S
Fe1626     O1633   2.023       .  S
Fe1626     O1637   2.148       .  S
Fe1626     O1642   2.021       .  S
Fe1626     O1636   1.914       .  S
Fe1627     O1645   2.021       .  S
Fe1627     O1632   2.153       .  S
Fe1627     O1639   2.153       .  S
Fe1627     O1636   1.910       .  S
O1628      C1635   1.262       .  A
O1629      C1643   1.288       .  A
O1630      C1635   1.281       .  A
O1631      C1634   1.251       .  A
O1632      C1644   1.290       .  A
O1633      C1646   1.262       .  A
C1634      O1639   1.285       .  A
C1634      C1811   1.476       .  S
C1635      C1839   1.501       .  S
O1637      C1640   1.287       .  A
O1638      C1640   1.261       .  A
C1640      C1965   1.488       .  S
O1641      C1646   1.283       .  A
O1642      C1644   1.260       .  A
C1643      O1645   1.259       .  A
C1643      C1825   1.500       .  S
C1644      C1800   1.513       .  S
C1646      C1783   1.497       .  S
Fe1647     O1663   2.012       .  S
Fe1647     O1660   2.125       .  S
Fe1647     O1652   1.991       .  S
Fe1647     O1658   1.903       .  S
Fe1648     O1651   2.032       .  S
Fe1648     O1655   2.170       .  S
Fe1648     O1659   2.023       .  S
Fe1648     O1664   2.157       .  S
Fe1648     O1658   1.921       .  S
Fe1649     O1667   2.137       .  S
Fe1649     O1654   2.020       .  S
Fe1649     O1661   2.026       .  S
Fe1649     O1650   2.158       .  S
Fe1649     O1658   1.901       .  S
O1650      C1657   1.286       .  A
O1651      C1665   1.267       .  A
O1652      C1657   1.251       .  A
O1653      C1656   1.283       .  A
O1654      C1666   1.260       .  A
O1655      C1668   1.291       .  A
C1656      C1730   1.507       .  S
C1657      C1814   1.479       .  S
O1659      C1662   1.262       .  A
O1660      C1662   1.283       .  A
O1663      C1668   1.259       .  A
O1664      C1666   1.289       .  A
C1665      O1667   1.288       .  A
C1665      C1772   1.508       .  S
C1666      C1741   1.503       .  S
C1668      C1898   1.504       .  S
Fe1669     O1685   2.020       .  S
Fe1669     O1675   2.141       .  S
Fe1669     O1682   2.110       .  S
Fe1669     O1674   1.985       .  S
Fe1669     O1680   1.904       .  S
Fe1670     O1673   2.033       .  S
Fe1670     O1677   2.181       .  S
Fe1670     O1681   2.034       .  S
Fe1670     O1686   2.156       .  S
Fe1670     O1680   1.914       .  S
Fe1671     O1689   2.140       .  S
Fe1671     O1676   2.010       .  S
Fe1671     O1683   2.030       .  S
Fe1671     O1672   2.162       .  S
Fe1671     O1680   1.918       .  S
O1672      C1679   1.285       .  A
O1673      C1687   1.268       .  A
O1674      C1679   1.246       .  A
O1675      C1678   1.283       .  A
O1676      C1688   1.260       .  A
O1677      C1690   1.296       .  A
C1678      O1683   1.261       .  A
C1678      C1744   1.504       .  S
C1679      C1716   1.475       .  S
O1681      C1684   1.261       .  A
O1682      C1684   1.278       .  A
C1684      C1797   1.494       .  S
O1685      C1690   1.264       .  A
O1686      C1688   1.290       .  A
C1687      O1689   1.287       .  A
C1687      C1786   1.486       .  S
C1688      C1727   1.500       .  S
C1690      C1870   1.515       .  S
Fe1691     O1707   2.130       .  S
Fe1691     O1697   1.975       .  S
Fe1691     O1704   2.019       .  S
Fe1691     O1696   2.143       .  S
Fe1691     O1702   1.913       .  S
Fe1692     O1695   2.142       .  S
Fe1692     O1699   2.026       .  S
Fe1692     O1703   2.160       .  S
Fe1692     O1708   2.028       .  S
Fe1692     O1702   1.918       .  S
Fe1693     O1711   2.024       .  S
Fe1693     O1698   2.151       .  S
Fe1693     O1705   2.165       .  S
Fe1693     O1694   2.030       .  S
Fe1693     O1702   1.917       .  S
O1694      C1701   1.260       .  A
O1695      C1709   1.288       .  A
O1696      C1701   1.284       .  A
O1697      C1700   1.248       .  A
O1698      C1710   1.287       .  A
O1699      C1712   1.259       .  A
C1700      O1705   1.286       .  A
C1700      C1713   1.477       .  S
C1701      C1828   1.506       .  S
O1703      C1706   1.291       .  A
O1704      C1706   1.260       .  A
C1706      C1853   1.494       .  S
O1707      C1712   1.284       .  A
O1708      C1710   1.264       .  A
C1709      O1711   1.262       .  A
C1709      C1842   1.502       .  S
C1710      C1758   1.492       .  S
C1712      C1769   1.493       .  S
C1713      C1714   1.401       .  A
C1713      C1718   1.426       .  A
C1714      C1715   1.408       .  A
C1714      C1719   1.451       .  S
C1715      C1716   1.424       .  A
C1715      C1722   1.451       .  S
C1716      C1717   1.401       .  A
C1717      C1718   1.410       .  A
C1717      C1720   1.451       .  S
C1718      C1721   1.451       .  S
C1719      N1726   1.157       .  T
C1720      N1725   1.157       .  T
C1721      N1723   1.157       .  T
C1722      N1724   1.157       .  T
C1727      C1728   1.423       .  A
C1727      C1732   1.407       .  A
C1728      C1729   1.411       .  A
C1728      C1733   1.451       .  S
C1729      C1730   1.409       .  A
C1729      C1736   1.451       .  S
C1730      C1731   1.431       .  A
C1731      C1732   1.419       .  A
C1731      C1734   1.451   1_655  S
C1732      C1735   1.451       .  S
C1733      N1740   1.156       .  T
C1735      N1737   1.157       .  T
C1736      N1738   1.158       .  T
C1741      C1742   1.408       .  A
C1741      C1746   1.427       .  A
C1742      C1743   1.417       .  A
C1742      C1747   1.451       .  S
C1743      C1744   1.427       .  A
C1743      C1750   1.450       .  S
C1744      C1745   1.409       .  A
C1745      C1746   1.414       .  A
C1745      C1748   1.452       .  S
C1746      C1749   1.453       .  S
C1747      N1754   1.157       .  T
C1748      N1753   1.157       .  T
C1749      N1751   1.157       .  T
C1750      N1752   1.157       .  T
C1755      C1756   1.416       .  A
C1755      C1760   1.425       .  A
C1756      C1757   1.417       .  A
C1756      C1761   1.452       .  S
C1757      C1758   1.417       .  A
C1757      C1764   1.449       .  S
C1758      C1759   1.407       .  A
C1759      C1760   1.416       .  A
C1759      C1762   1.451       .  S
C1761      N1768   1.158       .  T
C1762      N1767   1.157       .  T
C1763      N1765   1.157       .  T
C1764      N1766   1.156       .  T
C1769      C1770   1.415       .  A
C1769      C1774   1.410       .  A
C1770      C1771   1.411       .  A
C1770      C1775   1.447       .  S
C1771      C1772   1.415       .  A
C1771      C1778   1.449       .  S
C1772      C1773   1.424       .  A
C1773      C1774   1.419       .  A
C1773      C1776   1.450       .  S
C1774      C1777   1.450       .  S
C1775      N1782   1.156       .  T
C1776      N1781   1.157       .  T
C1777      N1779   1.157       .  T
C1778      N1780   1.156       .  T
C1783      C1784   1.422       .  A
C1784      C1789   1.451       .  S
C1785      C1786   1.410       .  A
C1785      C1792   1.451       .  S
C1786      C1787   1.414       .  A
C1787      C1788   1.410       .  A
C1787      C1790   1.446       .  S
C1788      C1791   1.452       .  S
C1789      N1796   1.157       .  T
C1790      N1795   1.155       .  T
C1791      N1793   1.157       .  T
C1792      N1794   1.157       .  T
C1797      C1798   1.418       .  A
C1797      C1802   1.404       .  A
C1798      C1799   1.412       .  A
C1798      C1803   1.449       .  S
C1799      C1800   1.413       .  A
C1799      C1806   1.452       .  S
C1800      C1801   1.436       .  A
C1801      C1802   1.418       .  A
C1801      C1804   1.452       .  S
C1802      C1805   1.452       .  S
C1803      N1810   1.156       .  T
C1804      N1809   1.158       .  T
C1805      N1807   1.157       .  T
C1806      N1808   1.157       .  T
C1811      C1812   1.403       .  A
C1812      C1817   1.452       .  S
C1813      C1814   1.423       .  A
C1813      C1820   1.449       .  S
C1814      C1815   1.401       .  A
C1815      C1818   1.452       .  S
C1816      C1819   1.450       .  S
C1817      N1824   1.157       .  T
C1818      N1823   1.157       .  T
C1819      N1821   1.157       .  T
C1820      N1822   1.157       .  T
C1825      C1826   1.407       .  A
C1825      C1830   1.425       .  A
C1826      C1827   1.417       .  A
C1826      C1831   1.451       .  S
C1827      C1828   1.430       .  A
C1827      C1834   1.451       .  S
C1828      C1829   1.410       .  A
C1829      C1830   1.414       .  A
C1829      C1832   1.452       .  S
C1830      C1833   1.452       .  S
C1831      N1838   1.157       .  T
C1832      N1837   1.157       .  T
C1833      N1835   1.157       .  T
C1834      N1836   1.157       .  T
C1839      C1840   1.409       .  A
C1839      C1844   1.425       .  A
C1840      C1841   1.415       .  A
C1840      C1845   1.452       .  S
C1841      C1842   1.427       .  A
C1841      C1848   1.452       .  S
C1842      C1843   1.409       .  A
C1843      C1844   1.414       .  A
C1843      C1846   1.453       .  S
C1844      C1847   1.449       .  S
C1845      N1852   1.158       .  T
C1846      N1851   1.158       .  T
C1848      N1850   1.157       .  T
C1853      C1854   1.419       .  A
C1853      C1858   1.410       .  A
C1854      C1855   1.422       .  A
C1854      C1859   1.449       .  S
C1855      C1856   1.413       .  A
C1855      C1862   1.449       .  S
C1856      C1857   1.420       .  A
C1857      C1858   1.413       .  A
C1857      C1860   1.453       .  S
C1858      C1861   1.450       .  S
C1859      N1866   1.157       .  T
C1860      N1865   1.157       .  T
C1861      N1863   1.157       .  T
C1862      N1864   1.157       .  T
C1867      C1868   1.409       .  A
C1867      C1872   1.423       .  A
C1868      C1869   1.416       .  A
C1868      C1873   1.452       .  S
C1869      C1870   1.427       .  A
C1869      C1876   1.452       .  S
C1870      C1871   1.413       .  A
C1871      C1872   1.426       .  A
C1871      C1874   1.449       .  S
C1872      C1875   1.449       .  S
C1873      N1880   1.157       .  T
C1874      N1879   1.157       .  T
C1875      N1877   1.158       .  T
C1876      N1878   1.158       .  T
C1881      C1882   1.439       .  A
C1881      C1886   1.412   1_554  A
C1882      C1883   1.414       .  A
C1882      C1887   1.450       .  S
C1883      C1884   1.404   1_554  A
C1883      C1890   1.454       .  S
C1884      C1885   1.425       .  A
C1885      C1886   1.414       .  A
C1885      C1888   1.448       .  S
C1886      C1889   1.452       .  S
C1887      N1894   1.156       .  T
C1888      N1893   1.155       .  T
C1889      N1891   1.157       .  T
C1890      N1892   1.157       .  T
C1895      C1900   1.407       .  A
C1896      C1897   1.421       .  A
C1896      C1901   1.450       .  S
C1897      C1898   1.412       .  A
C1897      C1904   1.448       .  S
C1899      C1900   1.410   1_455  A
C1899      C1902   1.454   1_455  S
C1900      C1903   1.453       .  S
C1901      N1908   1.157       .  T
C1902      N1907   1.158       .  T
C1903      N1905   1.157       .  T
C1904      N1906   1.157       .  T
C1909      C1910   1.405       .  A
C1909      C1914   1.424   1_554  A
C1910      C1911   1.415       .  A
C1910      C1915   1.451       .  S
C1911      C1912   1.427   1_554  A
C1911      C1918   1.452       .  S
C1912      C1913   1.410       .  A
C1913      C1914   1.416       .  A
C1913      C1916   1.451       .  S
C1914      C1917   1.452       .  S
C1915      N1922   1.158       .  T
C1916      N1921   1.158       .  T
C1918      N1920   1.157       .  T
C1923      C1924   1.424       .  A
C1923      C1928   1.418       .  A
C1924      C1925   1.416   1_556  A
C1924      C1929   1.451       .  S
C1925      C1926   1.411       .  A
C1925      C1932   1.452       .  S
C1926      C1927   1.413       .  A
C1927      C1928   1.413   1_554  A
C1927      C1930   1.444       .  S
C1928      C1931   1.453       .  S
C1929      N1936   1.157       .  T
C1930      N1935   1.154       .  T
C1931      N1933   1.158       .  T
C1932      N1934   1.157       .  T
C1937      C1938   1.405       .  A
C1937      C1942   1.417       .  A
C1938      C1939   1.420       .  A
C1938      C1943   1.451       .  S
C1939      C1940   1.432       .  A
C1940      C1941   1.420       .  A
C1941      C1942   1.414       .  A
C1941      C1944   1.452       .  S
C1942      C1945   1.453       .  S
C1943      N1950   1.157       .  T
C1944      N1949   1.157       .  T
C1945      N1947   1.157       .  T
C1946      N1948   1.158       .  T
C1951      C1952   1.410       .  A
C1951      C1956   1.431       .  A
C1952      C1953   1.414       .  A
C1952      C1957   1.452       .  S
C1953      C1954   1.421       .  A
C1953      C1960   1.449       .  S
C1954      C1955   1.407       .  A
C1955      C1956   1.414       .  A
C1955      C1958   1.452       .  S
C1956      C1959   1.453       .  S
C1957      N1964   1.158       .  T
C1958      N1963   1.157       .  T
C1959      N1961   1.158       .  T
C1960      N1962   1.156       .  T
C1965      C1970   1.411       .  A
C1966      C1967   1.420       .  A
C1966      C1971   1.452       .  S
C1967      C1968   1.413       .  A
C1967      C1974   1.448       .  S
C1969      C1970   1.412   1_455  A
C1969      C1972   1.455       .  S
C1970      C1973   1.450       .  S
C1971      N1978   1.155       .  T
C1972      N1977   1.155       .  T
C1973      N1975   1.160       .  T
C1974      N1976   1.159       .  T
C1980      C1985   1.453   1_545  S
C1981      C1982   1.399   1_554  A
C1981      C1988   1.452       .  S
C1983      C1984   1.408       .  A
C1983      C1986   1.451       .  S
C1984      C1987   1.453       .  S
C1985      N1992   1.158       .  T
C1986      N1991   1.157       .  T
C1987      N1989   1.157       .  T
C1988      N1990   1.157       .  T
C1993      C1994   1.429       .  A
C1993      C1998   1.416       .  A
C1994      C1995   1.416       .  A
C1994      C1999   1.447       .  S
C1995      C1996   1.406       .  A
C1995      C2002   1.453       .  S
C1996      C1997   1.421       .  A
C1997      C1998   1.414       .  A
C1997      C2000   1.453       .  S
C1998      C2001   1.451       .  S
C1999      N2006   1.155       .  T
C2000      N2005   1.157       .  T
C2001      N2003   1.157       .  T
C2002      N2004   1.158       .  T
C2007      C2008   1.413       .  A
C2007      C2012   1.430       .  A
C2008      C2013   1.451       .  S
C2009      C2010   1.416       .  A
C2009      C2016   1.451       .  S
C2011      C2012   1.413       .  A
C2011      C2014   1.452       .  S
C2012      C2015   1.453       .  S
C2013      N2020   1.158       .  T
C2014      N2019   1.158       .  T
C2015      N2017   1.157       .  T
C2016      N2018   1.157       .  T
C2021      C2022   1.417   1_556  A
C2021      C2026   1.404       .  A
C2022      C2023   1.414       .  A
C2022      C2027   1.452       .  S
C2023      C2024   1.416       .  A
C2023      C2030   1.452       .  S
C2024      C2025   1.434       .  A
C2025      C2026   1.416   1_554  A
C2025      C2028   1.452       .  S
C2026      C2029   1.452       .  S
C2027      N2034   1.157       .  T
C2028      N2033   1.158       .  T
C2029      N2031   1.157       .  T
C2030      N2032   1.157       .  T
C2035      C2036   1.410       .  A
C2035      C2040   1.427       .  A
C2036      C2037   1.414       .  A
C2036      C2041   1.452       .  S
C2037      C2038   1.424   1_556  A
C2037      C2044   1.453       .  S
C2038      C2039   1.407       .  A
C2039      C2040   1.415   1_554  A
C2039      C2042   1.452       .  S
C2040      C2043   1.451   1_656  S
C2041      N2048   1.157       .  T
C2042      N2047   1.157       .  T
C2044      N2046   1.157       .  T
