geometry optimzed in LAMMPS
_audit_creation_date              2020-12-01 
_audit_creation_method            'lammps2cif' 
_symmetry_space_group_name_H-M    'P1' 
_symmetry_Int_Tables_number       1 
_symmetry_cell_setting            triclinic 
loop_ 
_symmetry_equiv_pos_as_xyz 
  x,y,z 
_cell_length_a                    43.71558788 
_cell_length_b                    30.759714268012587 
_cell_length_c                    39.83220311017903 
_cell_angle_alpha                 88.02244250825609 
_cell_angle_beta                  89.95347904245826 
_cell_angle_gamma                 89.78734814377158 
loop_ 
_atom_site_label 
_atom_site_type_symbol 
_atom_site_fract_x 
_atom_site_fract_y 
_atom_site_fract_z 
_atom_site_charge 
O1          O  0.15227628  0.84215719  0.41461175    -0.86200
O2          O  0.13070676  0.92092667  0.39286061    -0.83300
C3          C  0.12902331  0.96027753  0.38355827     0.97300
O4          O  0.15294212  0.98083803  0.37464136    -0.83300
O5          O  0.19488096  0.98102152  0.42787722    -0.85900
C6          C  0.21502312  0.96614453  0.44779347     1.01800
O7          O  0.22797265  0.93043921  0.44313117    -0.78700
O8          O  0.18306567  0.87197564  0.45020398    -0.78900
C9          C  0.15940086  0.85029564  0.44493233     1.01700
O10         O  0.18779523  0.83816958  0.35055108    -0.86200
O11         O  0.15938576  0.91897104  0.32818053    -0.83300
C12         C  0.17861023  0.94615042  0.31554893     0.97300
O13         O  0.20214403  0.95356269  0.33221336    -0.83300
O14         O  0.24320548  0.95938094  0.38288474    -0.85900
C15         C  0.26123405  0.92709388  0.38218712     1.01700
O16         O  0.25182192  0.88874544  0.38769840    -0.78700
O17         O  0.20992506  0.82224655  0.39865683    -0.78900
C18         C  0.20410495  0.81285392  0.36881983     1.01700
Cr19       Cr  0.16010985  0.88143948  0.37236600     1.93700
Cr20       Cr  0.19766322  0.96460269  0.38020649     1.93200
Cr21       Cr  0.21617506  0.88013074  0.41766910     1.39100
O22         O  0.19135794  0.90885733  0.38988191    -1.24000
O23         O  0.35027954  0.61622181  0.40018936    -0.86200
O24         O  0.36061073  0.55249627  0.35361988    -0.83300
C25         C  0.36742771  0.52039656  0.37289127     0.97300
O26         O  0.34750804  0.50472442  0.39267280    -0.83300
O27         O  0.29221820  0.49210582  0.42668071    -0.85900
C28         C  0.29272118  0.51520176  0.45220811     1.01800
O29         O  0.30188401  0.55338613  0.44915627    -0.78700
O30         O  0.30871715  0.63524552  0.42472661    -0.78900
C31         C  0.33749068  0.63206431  0.42573472     1.01700
O32         O  0.29872870  0.65082468  0.35792870    -0.86200
O33         O  0.30861814  0.57669167  0.31477630    -0.83300
C34         C  0.31020787  0.53638655  0.30771538     0.97300
O35         O  0.31483034  0.50774058  0.33063473    -0.83300
O36         O  0.26033424  0.50558374  0.36576769    -0.85900
C37         C  0.23994196  0.51874279  0.38556278     1.01700
O38         O  0.24658913  0.54346442  0.40914215    -0.78700
O39         O  0.25845287  0.61920078  0.37855964    -0.78900
C40         C  0.27014979  0.65186787  0.36456139     1.01700
Cr41       Cr  0.32775911  0.59753892  0.35809708     1.93700
Cr42       Cr  0.30416006  0.50656835  0.37922009     1.93200
Cr43       Cr  0.28052951  0.58646329  0.41337624     1.39100
O44         O  0.30367484  0.56354883  0.38282191    -1.24000
O45         O  0.12609254  0.13168231  0.09146606    -0.86200
O46         O  0.11238584  0.06480769  0.13757694    -0.83300
C47         C  0.10782625  0.03771940  0.11521234     0.97300
O48         O  0.13038343  0.02450214  0.09834096    -0.83300
O49         O  0.19114533  0.01775992  0.07332311    -0.85900
C50         C  0.19623637  0.04435361  0.04917252     1.01800
O51         O  0.19048647  0.08369487  0.05165922    -0.78700
O52         O  0.16977018  0.15777880  0.07439238    -0.78900
C53         C  0.14199354  0.14950557  0.06800934     1.01700
O54         O  0.16660444  0.16894081  0.14169739    -0.86200
O55         O  0.15832640  0.08902388  0.18273542    -0.83300
C56         C  0.15809019  0.04781566  0.18919361     0.97300
O57         O  0.15597995  0.02174606  0.16536571    -0.83300
O58         O  0.21366086  0.02324048  0.13894953    -0.85900
C59         C  0.23662457  0.03982689  0.12427545     1.01700
O60         O  0.23374830  0.07232553  0.10429846    -0.78700
O61         O  0.21263368  0.14630512  0.13164507    -0.78900
C62         C  0.19521552  0.17553142  0.14159080     1.01700
Cr63       Cr  0.14306145  0.11237206  0.13720360     1.93700
Cr64       Cr  0.17233610  0.02620727  0.11860201     1.93200
Cr65       Cr  0.19971932  0.11313320  0.09267909     1.39100
O66         O  0.17226538  0.08371128  0.11658756    -1.24000
O67         O  0.33155115  0.34811915  0.08315898    -0.86200
O68         O  0.35950487  0.41707823  0.11100833    -0.83300
C69         C  0.36312115  0.45688226  0.11614184     0.97300
O70         O  0.34059742  0.48066775  0.12320985    -0.83300
O71         O  0.30376179  0.48969315  0.06719408    -0.85900
C72         C  0.28295868  0.48122746  0.04676224     1.01800
O73         O  0.26386050  0.45181165  0.05338817    -0.78700
O74         O  0.30445407  0.38669959  0.04625526    -0.78900
C75         C  0.32589603  0.36018044  0.05241390     1.01700
O76         O  0.28949816  0.34401270  0.14501934    -0.86200
O77         O  0.32342654  0.41393694  0.17210069    -0.83300
C78         C  0.30625010  0.44457175  0.18254215     0.97300
O79         O  0.28790475  0.46353114  0.16276108    -0.83300
O80         O  0.25070598  0.47677235  0.11011199    -0.85900
C81         C  0.23039833  0.44798219  0.11524287     1.01700
O82         O  0.23659321  0.40863933  0.10934125    -0.78700
O83         O  0.27430711  0.33603659  0.09462154    -0.78900
C84         C  0.27200902  0.32517686  0.12488043     1.01700
Cr85       Cr  0.32399593  0.38237283  0.12684112     1.93700
Cr86       Cr  0.29603830  0.47364872  0.11503677     1.93200
Cr87       Cr  0.27140990  0.39698060  0.07818418     1.39100
O88         O  0.29762309  0.41792099  0.10690487    -1.24000
O89         O  0.42126960  0.84983338  0.06103803    -0.86200
O90         O  0.42911600  0.93282342  0.03572386    -0.83300
C91         C  0.43486059  0.97283410  0.03398950     0.97300
O92         O  0.43226452  0.99441846  0.06003915    -0.83300
O93         O  0.37570271  0.97949525  0.09115747    -0.85900
C94         C  0.35578062  0.96194590  0.11019634     1.01800
O95         O  0.36264946  0.92916502  0.12900140    -0.78700
O96         O  0.37799347  0.86442737  0.08516115    -0.78900
C97         C  0.39240952  0.84917543  0.06042108     1.01700
O98         O  0.46867772  0.86659231  0.11006846    -0.86200
O99         O  0.97995435  0.94462075  0.07972760    -0.83300
C100        C  0.98427253  0.96989202  0.10359743     0.97300
O101        O  0.96196404  0.98149405  0.12158777    -0.83300
O102        O  0.40546433  0.97740702  0.15359195    -0.85900
C103        C  0.41181468  0.95052153  0.17700099     1.01700
O104        O  0.41513599  0.91019944  0.17074603    -0.78700
O105        O  0.42783167  0.83481753  0.12990277    -0.78900
C106        C  0.45640269  0.83376197  0.12366127     1.01700
Cr107      Cr  0.44764406  0.89993077  0.07389550     1.93700
Cr108      Cr  0.41882412  0.97863076  0.10629927     1.93200
Cr109      Cr  0.39775911  0.88660118  0.12727620     1.39100
O110        O  0.42141254  0.92163642  0.10258120    -1.24000
O111        O  0.05716358  0.63884082  0.06029157    -0.86200
O112        O  0.03574921  0.56108135  0.04610103    -0.83300
C113        C  0.02480272  0.52383873  0.04854694     0.97300
O114        O  0.02591467  0.50278355  0.07610139    -0.83300
O115        O  0.08590043  0.50490643  0.10283874    -0.85900
C116        C  0.10875377  0.52011596  0.11793211     1.01800
O117        O  0.10570679  0.55299502  0.13589939    -0.78700
O118        O  0.09786796  0.61740021  0.08787940    -0.78900
C119        C  0.08568994  0.63131580  0.06069281     1.01700
O120        O  0.50898157  0.64362158  0.11257058    -0.86200
O121        O  0.48755746  0.56522209  0.09385753    -0.83300
C122        C  0.48180623  0.53890613  0.11816876     0.97300
O123        O  0.50286719  0.52634053  0.13783700    -0.83300
O124        O  0.05986007  0.51644742  0.16648620    -0.85900
C125        C  0.05986033  0.54517287  0.18815160     1.01700
O126        O  0.05998973  0.58556080  0.17891388    -0.78700
O127        O  0.05344486  0.66156028  0.13233966    -0.78900
C128        C  0.02550871  0.67077329  0.12603300     1.01700
Cr129      Cr  0.02424760  0.60051075  0.08099272     1.93700
Cr130      Cr  0.04423822  0.51724095  0.11996692     1.93200
Cr131      Cr  0.07680051  0.60321544  0.13236508     1.39100
O132        O  0.04816804  0.57400714  0.11146873    -1.24000
O133        O  0.43044215  0.13346709  0.42280597    -0.86200
O134        O  0.44329643  0.04779970  0.44311046    -0.83300
C135        C  0.45272582  0.00904305  0.44257155     0.97300
O136        O  0.45626351  0.99131300  0.41491808    -0.83300
O137        O  0.40213234  0.99152734  0.38212313    -0.85900
C138        C  0.37794071  0.00815708  0.37028215     1.01800
O139        O  0.37795191  0.04575788  0.35589640    -0.78700
O140        O  0.38866547  0.11073830  0.40121506    -0.78900
C141        C  0.40201209  0.12891937  0.42530621     1.01700
O142        O  0.47859833  0.12915342  0.37567107    -0.86200
O143        O  0.99678205  0.05137971  0.40290231    -0.83300
C144        C  0.00577726  0.03109260  0.37774348     0.97300
O145        O  0.98660817  0.02171442  0.35548222    -0.83300
O146        O  0.43221020  0.01118562  0.32124559    -0.85900
C147        C  0.42808178  0.04157662  0.29991783     1.01700
O148        O  0.42326328  0.08023286  0.30937723    -0.78700
O149        O  0.43512416  0.15050042  0.35260714    -0.78900
C150        C  0.46370820  0.15660265  0.35798267     1.01700
Cr151      Cr  0.46024379  0.08815209  0.40842966     1.93700
Cr152      Cr  0.44373508  0.00848813  0.36889527     1.93200
Cr153      Cr  0.40851009  0.09512818  0.35636566     1.39100
O154        O  0.43746896  0.06411932  0.37719392    -1.24000
O155        O  0.05835931  0.33060706  0.43031462    -0.86200
O156        O  0.04025917  0.40826974  0.45423272    -0.83300
C157        C  0.03162073  0.44699600  0.45495272     0.97300
O158        O  0.03319323  0.47154347  0.42908637    -0.83300
O159        O  0.09305701  0.47288159  0.40440090    -0.85900
C160        C  0.11640361  0.45880674  0.38946047     1.01800
O161        O  0.11447635  0.42727979  0.36988212    -0.78700
O162        O  0.10136197  0.35623225  0.41130162    -0.78900
C163        C  0.08652343  0.33700557  0.43495424     1.01700
O164        O  0.51340057  0.34152956  0.37657867    -0.86200
O165        O  0.49260037  0.41711175  0.40187168    -0.83300
C166        C  0.48862169  0.44445864  0.37791087     0.97300
O167        O  0.51125646  0.45884919  0.36142605    -0.83300
O168        O  0.06938455  0.47122572  0.33863679    -0.85900
C169        C  0.06842460  0.44565861  0.31474541     1.01700
O170        O  0.06910082  0.40451769  0.32092893    -0.78700
O171        O  0.05882567  0.32408090  0.35878728    -0.78900
C172        C  0.03015959  0.31696014  0.36093141     1.01700
Cr173      Cr  0.02866788  0.37674615  0.41431304     1.93700
Cr174      Cr  0.05205939  0.46402391  0.38451361     1.93200
Cr175      Cr  0.08382483  0.37920364  0.36656676     1.39100
O176        O  0.05485121  0.40654885  0.38827565    -1.24000
O177        O  0.30893323  0.12887759  0.54716413    -0.86200
O178        O  0.26988339  0.06353509  0.55321117    -0.83300
C179        C  0.28603924  0.03071955  0.54746877     0.97300
O180        O  0.30708494  0.01829111  0.56719365    -0.83300
O181        O  0.34624484  0.01968504  0.62253830    -0.85900
C182        C  0.36947421  0.04163327  0.61417224     1.01800
O183        O  0.36677339  0.08121286  0.60599669    -0.78700
O184        O  0.34188049  0.15629389  0.58177808    -0.78900
C185        C  0.33381716  0.14796967  0.55159000     1.01700
O186        O  0.27856813  0.17207918  0.60145725    -0.86200
O187        O  0.24305492  0.09789328  0.61058977    -0.83300
C188        C  0.23613412  0.05821337  0.61413077     0.97300
O189        O  0.25638835  0.02935690  0.61088407    -0.83300
O190        O  0.29500950  0.03933222  0.66309206    -0.85900
C191        C  0.31657215  0.05137648  0.68126503     1.01700
O192        O  0.33494724  0.08087774  0.66992783    -0.78700
O193        O  0.30475654  0.15851642  0.64723268    -0.78900
C194        C  0.28415388  0.17997791  0.63167143     1.01700
Cr195      Cr  0.27740447  0.11421121  0.58043939     1.93700
Cr196      Cr  0.30163180  0.03117081  0.61519283     1.93200
Cr197      Cr  0.33454897  0.11792240  0.62515821     1.39100
O198        O  0.30464825  0.08787319  0.60711052    -1.24000
O199        O  0.17651904  0.33781589  0.56850227    -0.86200
O200        O  0.18774153  0.41831995  0.54069289    -0.83300
C201        C  0.19696068  0.45666052  0.53767258     0.97300
O202        O  0.19440800  0.48147263  0.56209400    -0.83300
O203        O  0.13657200  0.47774626  0.59311644    -0.85900
C204        C  0.11491062  0.46144659  0.61030907     1.01800
O205        O  0.11906861  0.42820476  0.62937181    -0.78700
O206        O  0.13334850  0.36004073  0.58828619    -0.78900
C207        C  0.14787205  0.34092478  0.56533791     1.01700
O208        O  0.22337647  0.35396019  0.61770691    -0.86200
O209        O  0.23855863  0.42966195  0.58505067    -0.83300
C210        C  0.24374776  0.45761936  0.60673819     0.97300
O211        O  0.22226466  0.47022552  0.62523416    -0.83300
O212        O  0.16624589  0.47448511  0.65645058    -0.85900
C213        C  0.16755054  0.44706374  0.68065109     1.01700
O214        O  0.16728504  0.40637850  0.67525654    -0.78700
O215        O  0.18012765  0.33021652  0.63873374    -0.78900
C216        C  0.20904404  0.32672002  0.63580373     1.01700
Cr217      Cr  0.20443026  0.38685532  0.58020470     1.93700
Cr218      Cr  0.17943205  0.47129084  0.60889268     1.93200
Cr219      Cr  0.15200199  0.38279678  0.63118915     1.39100
O220        O  0.17876094  0.41367149  0.60725178    -1.24000
O221        O  0.29801350  0.87535802  0.94312262    -0.86200
O222        O  0.25103184  0.93465371  0.93194099    -0.83300
C223        C  0.26313388  0.96815364  0.94203969     0.97300
O224        O  0.28859354  0.97940382  0.92962130    -0.83300
O225        O  0.33963611  0.98060395  0.88520550    -0.85900
C226        C  0.36250697  0.95538997  0.88283517     1.01800
O227        O  0.35896564  0.91516910  0.87910517    -0.78700
O228        O  0.32986312  0.84489651  0.90763172    -0.78900
C229        C  0.32199858  0.85322835  0.93803546     1.01700
O230        O  0.27546456  0.82759748  0.89203539    -0.86200
O231        O  0.23666114  0.90072455  0.87132269    -0.83300
C232        C  0.23094374  0.94072639  0.86412002     0.97300
O233        O  0.24970541  0.97023552  0.87207997    -0.83300
O234        O  0.29883829  0.97617811  0.83137501    -0.85900
C235        C  0.31402832  0.95504230  0.81074489     1.01700
O236        O  0.32425881  0.91718053  0.81882707    -0.78700
O237        O  0.29023725  0.84412580  0.84267170    -0.78900
C238        C  0.27339356  0.82094948  0.86171287     1.01700
Cr239      Cr  0.26757178  0.88652048  0.90750306     1.93700
Cr240      Cr  0.29454748  0.97167108  0.88027474     1.93200
Cr241      Cr  0.32344129  0.88189204  0.86341629     1.39100
O242        O  0.29594398  0.91428876  0.88349641    -1.24000
O243        O  0.17969893  0.61526871  0.93560457    -0.86200
O244        O  0.22759139  0.55810867  0.92606062    -0.83300
C245        C  0.21386960  0.52764303  0.94039054     0.97300
O246        O  0.19004793  0.51267720  0.92758579    -0.83300
O247        O  0.14034315  0.50635374  0.88494329    -0.85900
C248        C  0.11664047  0.52878112  0.87881607     1.01800
O249        O  0.11848850  0.56785639  0.86894185    -0.78700
O250        O  0.14251532  0.63790092  0.90100575    -0.78900
C251        C  0.15284426  0.63013218  0.93114093     1.01700
O252        O  0.20216820  0.66480714  0.88230112    -0.86200
O253        O  0.24120585  0.59270822  0.86458173    -0.83300
C254        C  0.24858138  0.55277939  0.86137340     0.97300
O255        O  0.22962541  0.52258488  0.86908615    -0.83300
O256        O  0.17924445  0.51442655  0.82862229    -0.85900
C257        C  0.16705487  0.53830736  0.80597646     1.01700
O258        O  0.15655037  0.57596324  0.81207060    -0.78700
O259        O  0.18102759  0.65157986  0.83529840    -0.78900
C260        C  0.19716902  0.67584715  0.85253536     1.01700
Cr261      Cr  0.20989137  0.60551594  0.89962104     1.93700
Cr262      Cr  0.18453043  0.51891561  0.87760666     1.93200
Cr263      Cr  0.15233693  0.60672000  0.85625103     1.39100
O264        O  0.18174108  0.57650770  0.87720927    -1.24000
O265        O  0.10255709  0.87610880  0.59179170    -0.86200
O266        O  0.11407436  0.94198891  0.63494165    -0.83300
C267        C  0.11791847  0.97447036  0.61485941     0.97300
O268        O  0.09528062  0.98937265  0.59862533    -0.83300
O269        O  0.03652169  0.99800706  0.57275077    -0.85900
C270        C  0.03629672  0.97685019  0.54648831     1.01800
O271        O  0.04625948  0.93858313  0.54761924    -0.78700
O272        O  0.06030155  0.85588262  0.56865204    -0.78900
C273        C  0.08906324  0.85879144  0.56748677     1.01700
O274        O  0.05702391  0.83845896  0.63866125    -0.86200
O275        O  0.06628928  0.91338253  0.68019561    -0.83300
C276        C  0.06721842  0.95365903  0.68703252     0.97300
O277        O  0.06978857  0.98204633  0.66379814    -0.83300
O278        O  0.51179086  0.97564027  0.63629429    -0.85900
C279        C  0.49008471  0.96349889  0.61794754     1.01700
O280        O  0.49564727  0.93936551  0.59351363    -0.78700
O281        O  0.51312970  0.85938184  0.61831667    -0.78900
C282        C  0.02879081  0.83145346  0.63278719     1.01700
Cr283      Cr  0.08288383  0.89401448  0.63517040     1.93700
Cr284      Cr  0.05374541  0.98217758  0.61747556     1.93200
Cr285      Cr  0.03058190  0.90076543  0.58424142     1.39100
O286        O  0.05530181  0.92518102  0.61292400    -1.24000
O287        O  0.38491879  0.63167755  0.58183784    -0.86200
O288        O  0.36946526  0.56742127  0.62903529    -0.83300
C289        C  0.36444568  0.53683447  0.60926053     0.97300
O290        O  0.38627047  0.52180628  0.59243423    -0.83300
O291        O  0.44476782  0.50867822  0.56708319    -0.85900
C292        C  0.44873829  0.53177032  0.54085417     1.01800
O293        O  0.44285080  0.57147478  0.54058317    -0.78700
O294        O  0.42894793  0.65128705  0.56153915    -0.78900
C295        C  0.40046648  0.64650908  0.55701213     1.01700
O296        O  0.43108776  0.66645495  0.62895101    -0.86200
O297        O  0.41844417  0.58929613  0.67307382    -0.83300
C298        C  0.41607467  0.54855224  0.68084027     0.97300
O299        O  0.41210723  0.52156252  0.65815885    -0.83300
O300        O  0.97022267  0.51718985  0.63153057    -0.85900
C301        C  0.99311861  0.53039921  0.61466052     1.01700
O302        O  0.99033703  0.55920045  0.59151956    -0.78700
O303        O  0.47370406  0.63576708  0.61632926    -0.78900
C304        C  0.46018217  0.66839903  0.62661629     1.01700
Cr305      Cr  0.40301437  0.61224154  0.62711727     1.93700
Cr306      Cr  0.42800904  0.52180793  0.61161236     1.93200
Cr307      Cr  0.45684829  0.60332941  0.57933240     1.39100
O308        O  0.42965520  0.57900504  0.60642712    -1.24000
O309        O  0.09915965  0.11837256  0.90892611    -0.86200
O310        O  0.11079333  0.05712691  0.85982264    -0.83300
C311        C  0.11622770  0.02136885  0.87501896     0.97300
O312        O  0.09593368  0.00415401  0.89371251    -0.83300
O313        O  0.03904759  0.99216857  0.92558623    -0.85900
C314        C  0.03628386  0.01285922  0.95196599     1.01800
O315        O  0.04583573  0.05120424  0.95171704    -0.78700
O316        O  0.05652723  0.13561171  0.93258687    -0.78900
C317        C  0.08528623  0.13366720  0.93412649     1.01700
O318        O  0.05140172  0.15559886  0.86345390    -0.86200
O319        O  0.06201486  0.08526188  0.81892713    -0.83300
C320        C  0.06254206  0.04550215  0.81037309     0.97300
O321        O  0.06435532  0.01518226  0.83222859    -0.83300
O322        O  0.50878306  0.01194549  0.86414040    -0.85900
C323        C  0.48745115  0.02359765  0.88343719     1.01700
O324        O  0.49361309  0.04746466  0.90760730    -0.78700
O325        O  0.50784437  0.12957382  0.88297757    -0.78900
C326        C  0.02299882  0.16078314  0.86898291     1.01700
Cr327      Cr  0.07876729  0.10225127  0.86452882     1.93700
Cr328      Cr  0.05239390  0.01106857  0.87989018     1.93200
Cr329      Cr  0.02794526  0.09003839  0.91681556     1.39100
O330        O  0.05255761  0.06802962  0.88636009    -1.24000
O331        O  0.38075034  0.36899454  0.90240400    -0.86200
O332        O  0.37191314  0.43575604  0.85400857    -0.83300
C333        C  0.36626611  0.46860023  0.87127554     0.97300
O334        O  0.38628122  0.48134753  0.89153622    -0.83300
O335        O  0.44263900  0.48449137  0.92610180    -0.85900
C336        C  0.44357414  0.45927144  0.95176316     1.01800
O337        O  0.43580773  0.42048434  0.94976044    -0.78700
O338        O  0.42225367  0.34296387  0.92498530    -0.78900
C339        C  0.39375586  0.34960231  0.92723153     1.01700
O340        O  0.42853621  0.33057946  0.85978591    -0.86200
O341        O  0.42169535  0.40906262  0.81512764    -0.83300
C342        C  0.42192260  0.44996942  0.80752184     0.97300
O343        O  0.41979741  0.47769508  0.83011444    -0.83300
O344        O  0.97323844  0.47589466  0.86535923    -0.85900
C345        C  0.99392928  0.45985423  0.88403998     1.01700
O346        O  0.98786934  0.43096077  0.90629900    -0.78700
O347        O  0.47130980  0.35782336  0.87543968    -0.78900
C348        C  0.45720835  0.32593897  0.86489369     1.01700
Cr349      Cr  0.40269133  0.38744580  0.85932889     1.93700
Cr350      Cr  0.43006758  0.47515039  0.87874725     1.93200
Cr351      Cr  0.45273255  0.38966574  0.91188437     1.39100
O352        O  0.42876837  0.41771048  0.88293359    -1.24000
C353        C  0.02019028  0.24059728  0.87783381    -0.02700
C354        C  0.00808776  0.20409817  0.86231408     0.07000
C355        C  0.47991644  0.20762610  0.84462002    -0.02800
C356        C  0.46402345  0.24814964  0.84352020    -0.02800
C357        C  0.47456603  0.28332881  0.86254650     0.07100
C358        C  0.00258754  0.27873365  0.88041183    -0.03000
Br359      Br  0.01628643  0.31868927  0.91377466    -0.01600
Br360      Br  0.06083929  0.23834314  0.89728331    -0.01600
Br361      Br  0.42827094  0.25477085  0.81546235    -0.01600
Br362      Br  0.46400873  0.15884869  0.82107879    -0.01600
C363        C  0.44476008  0.52368128  0.73325762    -0.02700
C364        C  0.41677862  0.52883335  0.71583387     0.07000
C365        C  0.39158345  0.50319017  0.72692238    -0.02800
C366        C  0.39414673  0.47392665  0.75503383    -0.02800
C367        C  0.42210071  0.46877384  0.77238366     0.07100
C368        C  0.44747449  0.49365780  0.76101158    -0.03000
Br369      Br  0.48641327  0.48529488  0.78309999    -0.01600
Br370      Br  0.47966755  0.55702584  0.71857806    -0.01600
Br371      Br  0.35892047  0.44143088  0.77043071    -0.01600
Br372      Br  0.35307561  0.50816466  0.70336003    -0.01600
C373        C  0.03775808  0.98235486  0.73552757    -0.02700
C374        C  0.06623265  0.97113320  0.72144644     0.07000
C375        C  0.09295005  0.99031310  0.73423002    -0.02800
C376        C  0.09129075  0.01956003  0.76081520    -0.02800
C377        C  0.06287017  0.03053302  0.77518075     0.07100
C378        C  0.03610104  0.01176359  0.76211967    -0.03000
Br379      Br  0.49722918  0.02750409  0.77980974    -0.01600
Br380      Br  0.50085168  0.95678394  0.71787285    -0.01600
Br381      Br  0.12829152  0.04410192  0.77818741    -0.01600
Br382      Br  0.13215836  0.97637346  0.71510550    -0.01600
C383        C  0.48512665  0.78300455  0.65353723    -0.02700
C384        C  0.01450481  0.78741960  0.63816062     0.07000
C385        C  0.02690269  0.75157107  0.62168824    -0.02800
C386        C  0.00917703  0.71388234  0.61690333    -0.02800
C387        C  0.47920025  0.70872265  0.63284760     0.07100
C388        C  0.46798726  0.74397674  0.65149426    -0.03000
Br389      Br  0.42935706  0.73977080  0.67478086    -0.01600
Br390      Br  0.46833202  0.83197588  0.67646900    -0.01600
Br391      Br  0.02608219  0.67206364  0.58641155    -0.01600
Br392      Br  0.06785264  0.75492248  0.60317161    -0.01600
C393        C  0.28454402  0.49492426  0.84361568    -0.02700
C394        C  0.28051474  0.53811695  0.85397748     0.07000
C395        C  0.30648947  0.56076618  0.86527775    -0.02800
C396        C  0.33493483  0.53886144  0.86921861    -0.02800
C397        C  0.33697256  0.49317712  0.86519361     0.07100
C398        C  0.31130303  0.47160956  0.85192433    -0.03000
Br399      Br  0.31035343  0.40904399  0.84775237    -0.01600
Br400      Br  0.25305695  0.46651202  0.81820918    -0.01600
Br401      Br  0.37098930  0.57268416  0.87839496    -0.01600
Br402      Br  0.30367293  0.62134641  0.87625899    -0.01600
C403        C  0.07969435  0.46697496  0.87172408    -0.02700
C404        C  0.08565828  0.50948986  0.88272227     0.07000
C405        C  0.06096467  0.53527822  0.89409490    -0.02800
C406        C  0.03106939  0.51870237  0.89448997    -0.02800
C407        C  0.02518082  0.47731773  0.88214233     0.07100
C408        C  0.04938662  0.45175017  0.87038404    -0.03000
Br409      Br  0.04059583  0.39730040  0.84990103    -0.01600
Br410      Br  0.11229091  0.42949393  0.85683735    -0.01600
Br411      Br  0.99806234  0.55262745  0.91266115    -0.01600
Br412      Br  0.06718550  0.59336697  0.90999811    -0.01600
C413        C  0.40154702  0.01166693  0.89928811    -0.02700
C414        C  0.39437742  0.97336561  0.88242118     0.07000
C415        C  0.41760361  0.95379817  0.86288341    -0.02800
C416        C  0.44800370  0.96921638  0.86347211    -0.02800
C417        C  0.45509952  0.00790109  0.88012893     0.07100
C418        C  0.43091512  0.03022135  0.89634462    -0.03000
Br419      Br  0.43635818  0.08811850  0.91323334    -0.01600
Br420      Br  0.37197739  0.03857098  0.92822335    -0.01600
Br421      Br  0.47937675  0.93511935  0.84212612    -0.01600
Br422      Br  0.40810605  0.90792354  0.83241324    -0.01600
C423        C  0.17392431  0.93181472  0.85620477    -0.02700
C424        C  0.20064400  0.95643517  0.85141823     0.07000
C425        C  0.19745971  0.00148963  0.84506400    -0.02800
C426        C  0.17098482  0.02299586  0.85537025    -0.02800
C427        C  0.14528267  0.99858449  0.86702686     0.07100
C428        C  0.14627558  0.95258908  0.86474140    -0.03000
Br429      Br  0.11022605  0.91729793  0.87194999    -0.01600
Br430      Br  0.17388706  0.87204960  0.84415040    -0.01600
Br431      Br  0.17222796  0.08589559  0.85482591    -0.01600
Br432      Br  0.22952067  0.03340855  0.82146616    -0.01600
C433        C  0.22155398  0.78554431  0.86808810    -0.02700
C434        C  0.25013151  0.78864705  0.85078942     0.07000
C435        C  0.25679724  0.75754069  0.82640657    -0.02800
C436        C  0.23713636  0.72132202  0.82276283    -0.02800
C437        C  0.20931956  0.71858782  0.84070627     0.07100
C438        C  0.20020020  0.75383450  0.85959013    -0.03000
Br439      Br  0.15894504  0.75485737  0.87694539    -0.01600
Br440      Br  0.21203557  0.81848559  0.90749466    -0.01600
Br441      Br  0.24933198  0.67346841  0.79584994    -0.01600
Br442      Br  0.29484018  0.76041799  0.80204046    -0.01600
C443        C  0.30124198  0.45248978  0.60227495    -0.02700
C444        C  0.27466132  0.47763203  0.60822413     0.07000
C445        C  0.27773678  0.52286947  0.61277123    -0.02800
C446        C  0.30687141  0.54237338  0.61180581    -0.02800
C447        C  0.33352206  0.51675540  0.60788757     0.07100
C448        C  0.33043852  0.47145290  0.60375591    -0.03000
Br449      Br  0.36594384  0.43361874  0.60244236    -0.01600
Br450      Br  0.29868453  0.39179373  0.59130026    -0.01600
Br451      Br  0.30951271  0.60496111  0.61376335    -0.01600
Br452      Br  0.24208413  0.55981499  0.61735541    -0.01600
C453        C  0.07767324  0.51617489  0.63141551    -0.02700
C454        C  0.08434692  0.48171212  0.61006887     0.07000
C455        C  0.06058550  0.46208228  0.59256262    -0.02800
C456        C  0.03010248  0.47368263  0.59874840    -0.02800
C457        C  0.02339528  0.50975531  0.61837174     0.07100
C458        C  0.04743249  0.53175609  0.63398829    -0.03000
Br459      Br  0.03900474  0.58352078  0.65829488    -0.01600
Br460      Br  0.10975372  0.54213183  0.65701774    -0.01600
Br461      Br  0.99776800  0.43907305  0.58097932    -0.01600
Br462      Br  0.07008494  0.42268482  0.55761219    -0.01600
C463        C  0.14073521  0.46986053  0.73330374    -0.02700
C464        C  0.16818671  0.46550200  0.71495596     0.07000
C465        C  0.19409423  0.48930821  0.72504361    -0.02800
C466        C  0.19255771  0.51681200  0.75273919    -0.02800
C467        C  0.16558545  0.51972755  0.77183512     0.07100
C468        C  0.13950014  0.49653008  0.76165602    -0.03000
Br469      Br  0.10166090  0.50272065  0.78581423    -0.01600
Br470      Br  0.10449916  0.44028255  0.71878523    -0.01600
Br471      Br  0.22683377  0.55307048  0.76363439    -0.01600
Br472      Br  0.23227463  0.48361823  0.70148681    -0.01600
C473        C  0.45333224  0.02266533  0.63520422    -0.02700
C474        C  0.45843272  0.98094198  0.62194763     0.07000
C475        C  0.43334990  0.95858692  0.60794607    -0.02800
C476        C  0.40476445  0.97924206  0.60408352    -0.02800
C477        C  0.40010871  0.02119334  0.61624618     0.07100
C478        C  0.42423428  0.04230630  0.63262675    -0.03000
Br479      Br  0.41753152  0.09809080  0.65258088    -0.01600
Br480      Br  0.48588617  0.05556328  0.65531583    -0.01600
Br481      Br  0.37257738  0.95088942  0.57976814    -0.01600
Br482      Br  0.43692568  0.89867296  0.59492713    -0.01600
C483        C  0.18053742  0.06018971  0.59791513    -0.02700
C484        C  0.20423897  0.04322955  0.61855088     0.07000
C485        C  0.19940491  0.00447235  0.63753081    -0.02800
C486        C  0.17322895  0.97951541  0.63242493    -0.02800
C487        C  0.14827717  0.99710180  0.61351915     0.07100
C488        C  0.15234401  0.03801830  0.59603700    -0.03000
Br489      Br  0.12105532  0.06379474  0.56716387    -0.01600
Br490      Br  0.18695620  0.11273391  0.57069068    -0.01600
Br491      Br  0.17509573  0.91910528  0.64786411    -0.01600
Br492      Br  0.22872038  0.98553737  0.67145169    -0.01600
C493        C  0.32628935  0.02328279  0.77559297    -0.02700
C494        C  0.31990386  0.97775840  0.77711174     0.07000
C495        C  0.31691860  0.95634327  0.74659061    -0.02800
C496        C  0.31788975  0.98029117  0.71552120    -0.02800
C497        C  0.32099202  0.02648229  0.71425502     0.07100
C498        C  0.32625244  0.04743025  0.74457096    -0.03000
Br499      Br  0.33171944  0.10966881  0.74396291    -0.01600
Br500      Br  0.33642905  0.05324278  0.81600543    -0.01600
Br501      Br  0.31585592  0.94857040  0.67449750    -0.01600
Br502      Br  0.31003431  0.89437459  0.74703074    -0.01600
C503        C  0.25876477  0.29288184  0.65505568    -0.02700
C504        C  0.22686835  0.28856359  0.64990607     0.07000
C505        C  0.21438065  0.24631336  0.65197426    -0.02800
C506        C  0.23412152  0.20983625  0.65231014    -0.02800
C507        C  0.26597738  0.21514938  0.64749412     0.07100
C508        C  0.27843868  0.25670710  0.65174195    -0.03000
Br509      Br  0.32208996  0.26441517  0.65157060    -0.01600
Br510      Br  0.27491286  0.34776272  0.66871652    -0.01600
Br511      Br  0.21770024  0.15306473  0.66218191    -0.01600
Br512      Br  0.17069995  0.23738193  0.65328415    -0.01600
C513        C  0.46023321  0.47114261  0.50433045    -0.02700
C514        C  0.46712237  0.51335052  0.51437558     0.07000
C515        C  0.49624247  0.53162765  0.50735128    -0.02800
C516        C  0.02078720  0.50427156  0.49377493    -0.02800
C517        C  0.01385781  0.46274569  0.48287846     0.07100
C518        C  0.48229899  0.44715800  0.48738238    -0.03000
Br519      Br  0.47223036  0.38920748  0.47420427    -0.01600
Br520      Br  0.42059077  0.44604292  0.51454766    -0.01600
Br521      Br  0.06182550  0.52654428  0.48773806    -0.01600
Br522      Br  0.50748344  0.58913181  0.52069668    -0.01600
C523        C  0.08458296  0.32390295  0.49976340    -0.02700
C524        C  0.10141713  0.32493476  0.46895380     0.07000
C525        C  0.13313637  0.31617865  0.47165545    -0.02800
C526        C  0.14832329  0.31674998  0.50335593    -0.02800
C527        C  0.13198983  0.32568967  0.53340261     0.07100
C528        C  0.09980404  0.32285530  0.53143425    -0.03000
Br529      Br  0.07690001  0.31042185  0.57218073    -0.01600
Br530      Br  0.04057732  0.32266564  0.50022115    -0.01600
Br531      Br  0.19078651  0.30010314  0.50503034    -0.01600
Br532      Br  0.15542339  0.29959678  0.43210844    -0.01600
C533        C  0.46619700  0.23827721  0.34152600    -0.02700
C534        C  0.48067471  0.19730969  0.34648658     0.07000
C535        C  0.01253143  0.19759724  0.34426045    -0.02800
C536        C  0.02989611  0.23604136  0.34744297    -0.02800
C537        C  0.01501406  0.27689906  0.34773906     0.07100
C538        C  0.48405795  0.27662082  0.33926118    -0.03000
Br539      Br  0.46655186  0.32970843  0.32062276    -0.01600
Br540      Br  0.42230049  0.24361318  0.33943230    -0.01600
Br541      Br  0.07362542  0.23128548  0.35300952    -0.01600
Br542      Br  0.03331959  0.14408824  0.33423789    -0.01600
C543        C  0.48946541  0.01318622  0.52446209    -0.02700
C544        C  0.01680433  0.99120050  0.51816687     0.07000
C545        C  0.01951056  0.96874081  0.48822787    -0.02800
C546        C  0.99427311  0.96531623  0.46713503    -0.02800
C547        C  0.46815225  0.98950978  0.47218459     0.07100
C548        C  0.46453728  0.01005101  0.50273914    -0.03000
Br549      Br  0.42457121  0.03099644  0.51546611    -0.01600
Br550      Br  0.48622509  0.05420033  0.55985820    -0.01600
Br551      Br  0.99573714  0.92237410  0.43290870    -0.01600
Br552      Br  0.05876042  0.94630266  0.47437249    -0.01600
C553        C  0.35366378  0.15342159  0.45752103    -0.02700
C554        C  0.38543040  0.14357473  0.45721127     0.07000
C555        C  0.40128036  0.14702168  0.48855530    -0.02800
C556        C  0.38514507  0.15226912  0.51940383    -0.02800
C557        C  0.35296411  0.15715881  0.51989756     0.07100
C558        C  0.33811469  0.16195201  0.48813599    -0.03000
Br559      Br  0.29595960  0.18148111  0.48625273    -0.01600
Br560      Br  0.33064833  0.15591508  0.41611036    -0.01600
Br561      Br  0.40760180  0.15151858  0.56109966    -0.01600
Br562      Br  0.44548378  0.14430216  0.49089016    -0.01600
C563        C  0.11602377  0.67209513  0.01322903    -0.02700
C564        C  0.10381023  0.63325445  0.02794361     0.07000
C565        C  0.10860480  0.59455017  0.01054865    -0.02800
C566        C  0.12205651  0.59495034  0.97823997    -0.02800
C567        C  0.13308706  0.63373760  0.96247566     0.07100
C568        C  0.13083646  0.67221905  0.98105525    -0.03000
Br569      Br  0.15020743  0.72428486  0.96377966    -0.01600
Br570      Br  0.11603070  0.72372643  0.03908202    -0.01600
Br571      Br  0.12784570  0.54017311  0.95731434    -0.01600
Br572      Br  0.10056165  0.53910268  0.03232022    -0.01600
C573        C  0.00727007  0.46438718  0.01384544    -0.02700
C574        C  0.00507719  0.50808881  0.02223739     0.07000
C575        C  0.48089330  0.53462802  0.01000864    -0.02800
C576        C  0.45784687  0.51596797  0.99093929    -0.02800
C577        C  0.46101329  0.47294301  0.98085662     0.07100
C578        C  0.48620209  0.44728393  0.99239464    -0.03000
Br579      Br  0.49313413  0.38878651  0.97841467    -0.01600
Br580      Br  0.04169150  0.42937888  0.02960534    -0.01600
Br581      Br  0.42139918  0.54885752  0.97905679    -0.01600
Br582      Br  0.47765681  0.59574987  0.01930226    -0.01600
C583        C  0.03522524  0.50741630  0.23808833    -0.02700
C584        C  0.06141829  0.52757565  0.22369038     0.07000
C585        C  0.09027461  0.51672145  0.23776285    -0.02800
C586        C  0.09279474  0.48714117  0.26585356    -0.02800
C587        C  0.06656069  0.46708864  0.28027758     0.07100
C588        C  0.03769832  0.47825570  0.26637237    -0.03000
Br589      Br  0.50185325  0.44958625  0.28445501    -0.01600
Br590      Br  0.49599478  0.51704825  0.21790828    -0.01600
Br591      Br  0.13251931  0.47342652  0.28443861    -0.01600
Br592      Br  0.12671583  0.54062235  0.21707176    -0.01600
C593        C  0.39993856  0.03117054  0.24576692    -0.02700
C594        C  0.42731511  0.02777209  0.26412888     0.07000
C595        C  0.45003187  0.99848366  0.25301660    -0.02800
C596        C  0.44429414  0.97014686  0.22641621    -0.02800
C597        C  0.41546187  0.97009512  0.21066446     0.07100
C598        C  0.39320808  0.00069020  0.22099230    -0.03000
Br599      Br  0.35241645  0.99899844  0.20273080    -0.01600
Br600      Br  0.37257492  0.07926411  0.25315515    -0.01600
Br601      Br  0.97585315  0.93214184  0.21097255    -0.01600
Br602      Br  0.98987720  0.99931786  0.27305751    -0.01600
C603        C  0.99378603  0.78131948  0.09936967    -0.02700
C604        C  0.47539313  0.79294608  0.12698381     0.07000
C605        C  0.47668626  0.76631218  0.15665076    -0.02800
C606        C  0.49438941  0.72721869  0.15764386    -0.02800
C607        C  0.01223124  0.71543742  0.12952022     0.07100
C608        C  0.01228367  0.74379230  0.10095599    -0.03000
Br609      Br  0.03643321  0.73028734  0.06229591    -0.01600
Br610      Br  0.99208378  0.81442215  0.05714938    -0.01600
Br611      Br  0.49341438  0.68881598  0.19680716    -0.01600
Br612      Br  0.45530025  0.78430580  0.19613839    -0.01600
C613        C  0.47394333  0.02529853  0.01353120    -0.02700
C614        C  0.45398912  0.99091679  0.00621348     0.07000
C615        C  0.46163420  0.96355860  0.98008139    -0.02800
C616        C  0.49124921  0.96411113  0.96655306    -0.02800
C617        C  0.01221719  0.99859497  0.97623813     0.07100
C618        C  0.00197168  0.02840811  0.00005186    -0.03000
Br619      Br  0.02953588  0.06955815  0.01951693    -0.01600
Br620      Br  0.95500953  0.07580618  0.03442040    -0.01600
Br621      Br  0.50253499  0.91688825  0.93803129    -0.01600
Br622      Br  0.43012086  0.92900369  0.96052254    -0.01600
C623        C  0.39033147  0.83193278  0.99741749    -0.02700
C624        C  0.37576550  0.83421009  0.02930791     0.07000
C625        C  0.34402617  0.82681300  0.03010160    -0.02800
C626        C  0.32629307  0.83120562  0.00040393    -0.02800
C627        C  0.34057288  0.83814351  0.96850038     0.07100
C628        C  0.37285907  0.83368898  0.96726015    -0.03000
Br629      Br  0.39379703  0.83014161  0.92467709    -0.01600
Br630      Br  0.43385550  0.82239121  0.99412869    -0.01600
Br631      Br  0.28238973  0.82610675  0.00437094    -0.01600
Br632      Br  0.32631576  0.80156531  0.07051609    -0.01600
C633        C  0.37555818  0.34030972  0.02216414    -0.02700
C634        C  0.34339160  0.34424524  0.02229390     0.07000
C635        C  0.32785933  0.33816000  0.99144641    -0.02800
C636        C  0.34414719  0.33615524  0.96062582    -0.02800
C637        C  0.37648157  0.33860418  0.95988511     0.07100
C638        C  0.39172785  0.33505241  0.99154138    -0.03000
Br639      Br  0.43415070  0.31868858  0.99446259    -0.01600
Br640      Br  0.39807502  0.34480654  0.06351143    -0.01600
Br641      Br  0.32196107  0.32581933  0.91984960    -0.01600
Br642      Br  0.28388641  0.33141334  0.99123846    -0.01600
C643        C  0.25247463  0.53624175  0.02094390    -0.02700
C644        C  0.27682937  0.50733440  0.01687111     0.07000
C645        C  0.27965098  0.48484775  0.98705736    -0.02800
C646        C  0.25520248  0.48454123  0.96440552    -0.02800
C647        C  0.22899729  0.51006707  0.97018801     0.07100
C648        C  0.22773258  0.53573719  0.99880042    -0.03000
Br649      Br  0.19222423  0.57011551  0.00812842    -0.01600
Br650      Br  0.25194069  0.57242521  0.05949018    -0.01600
Br651      Br  0.25790641  0.45027046  0.92491174    -0.01600
Br652      Br  0.31668597  0.45284890  0.97897584    -0.01600
C653        C  0.42531680  0.54153971  0.10784870    -0.04300
C654        C  0.45120645  0.51845684  0.12019795     0.07000
C655        C  0.44836315  0.47361801  0.12926501    -0.02800
C656        C  0.41955881  0.45345050  0.12863548    -0.02800
C657        C  0.39401178  0.47638919  0.11527412     0.07100
C658        C  0.39764571  0.51968962  0.10306344    -0.03000
Br659      Br  0.36603613  0.54810894  0.07628048    -0.01600
Br660      Br  0.42675047  0.60361645  0.09827920    -0.01600
Br661      Br  0.41569561  0.39470029  0.14714840    -0.01600
Br662      Br  0.48379834  0.43750179  0.13950502    -0.01600
C663        C  0.17296651  0.43572272  0.12326263    -0.02700
C664        C  0.19882616  0.46324183  0.12333285     0.07000
C665        C  0.19396665  0.50837477  0.12628222    -0.02800
C666        C  0.16529828  0.52645756  0.11933935    -0.02800
C667        C  0.13939184  0.49947107  0.11696808     0.07100
C668        C  0.14325226  0.45378638  0.12001045    -0.03000
Br669      Br  0.10822233  0.41563223  0.12096775    -0.01600
Br670      Br  0.17727294  0.37457728  0.13408038    -0.01600
Br671      Br  0.16305973  0.58865194  0.11065419    -0.01600
Br672      Br  0.22467819  0.54558660  0.14532889    -0.01600
C673        C  0.32249738  0.02665091  0.12098398    -0.02700
C674        C  0.32516650  0.98214266  0.11376551     0.07000
C675        C  0.29870841  0.95609721  0.11381348    -0.02800
C676        C  0.26987490  0.97392671  0.12095162    -0.02800
C677        C  0.26703569  0.01884171  0.12657718     0.07100
C678        C  0.29354839  0.04490766  0.12717478    -0.03000
Br679      Br  0.29032723  0.10574401  0.13739564    -0.01600
Br680      Br  0.35842963  0.06275856  0.12393126    -0.01600
Br681      Br  0.23435675  0.93646962  0.12093015    -0.01600
Br682      Br  0.30131839  0.89666487  0.10100194    -0.01600
C683        C  0.02049247  0.03119553  0.11503366    -0.02700
C684        C  0.01571863  0.98691468  0.10870781     0.07000
C685        C  0.04143367  0.95932812  0.10478116    -0.02800
C686        C  0.07137871  0.97609750  0.10533243    -0.02800
C687        C  0.07621995  0.02053434  0.11120394     0.07100
C688        C  0.05044750  0.04773496  0.11683651    -0.03000
Br689      Br  0.05514678  0.10839579  0.12693968    -0.01600
Br690      Br  0.98616898  0.07036667  0.12016704    -0.01600
Br691      Br  0.10558611  0.93664851  0.10049126    -0.01600
Br692      Br  0.03635980  0.89734134  0.10150868    -0.01600
C693        C  0.23352387  0.22592602  0.16744252    -0.02700
C694        C  0.20846911  0.21953777  0.14582005     0.07000
C695        C  0.20150515  0.25204498  0.12135939    -0.02800
C696        C  0.22277822  0.28502082  0.11352541    -0.02800
C697        C  0.24882435  0.29108900  0.13455588     0.07100
C698        C  0.25252938  0.26290445  0.16313346    -0.03000
Br699      Br  0.28458654  0.27234863  0.19534334    -0.01600
Br700      Br  0.24178862  0.18393249  0.20308148    -0.01600
Br701      Br  0.21567455  0.31854496  0.07189392    -0.01600
Br702      Br  0.16308390  0.25104299  0.09741321    -0.01600
C703        C  0.08415077  0.16295102  0.99452576    -0.02700
C704        C  0.10139099  0.14776535  0.96656281     0.07000
C705        C  0.13363800  0.14489360  0.97138120    -0.02800
C706        C  0.14720277  0.15265724  0.00323271    -0.02800
C707        C  0.12891519  0.15713956  0.03251082     0.07100
C708        C  0.09749166  0.16558293  0.02708848    -0.03000
Br709      Br  0.07343433  0.18690170  0.06366636    -0.01600
Br710      Br  0.04261926  0.18420024  0.98912924    -0.01600
Br711      Br  0.19083066  0.16246270  0.00494874    -0.01600
Br712      Br  0.16046163  0.13117515  0.93485642    -0.01600
C713        C  0.21324522  0.98511416  0.97086216    -0.02700
C714        C  0.24538511  0.99315053  0.96684840     0.07000
C715        C  0.25945898  0.02363417  0.98744976    -0.02800
C716        C  0.24216671  0.04386078  0.01225867    -0.02800
C717        C  0.21190529  0.03015689  0.01911664     0.07100
C718        C  0.19724597  0.00179640  0.99802346    -0.03000
Br719      Br  0.15461193  0.98757250  0.00598219    -0.01600
Br720      Br  0.18906055  0.95352445  0.93928930    -0.01600
Br721      Br  0.26032535  0.09060527  0.03635446    -0.01600
Br722      Br  0.30252645  0.03667406  0.98386340    -0.01600
C723        C  0.35495771  0.66583018  0.51766432    -0.02700
C724        C  0.38600974  0.65387564  0.52202869     0.07000
C725        C  0.40246297  0.64501198  0.49225961    -0.02800
C726        C  0.38713051  0.63643898  0.46165168    -0.02800
C727        C  0.35520285  0.64456879  0.45761692     0.07100
C728        C  0.34008386  0.66299565  0.48579696    -0.03000
Br729      Br  0.29942045  0.68736567  0.48154341    -0.01600
Br730      Br  0.33405992  0.69243420  0.55437939    -0.01600
Br731      Br  0.41122600  0.61145032  0.42662977    -0.01600
Br732      Br  0.44629694  0.65076414  0.49102180    -0.01600
C733        C  0.27109209  0.45810331  0.48971582    -0.02700
C734        C  0.27259385  0.50232134  0.48018017     0.07000
C735        C  0.24830431  0.53060534  0.48847277    -0.02800
C736        C  0.22131564  0.51366868  0.50237063    -0.02800
C737        C  0.21950839  0.46934674  0.51180542     0.07100
C738        C  0.24466089  0.44140588  0.50531268    -0.03000
Br739      Br  0.24430756  0.38018349  0.51727483    -0.01600
Br740      Br  0.30568595  0.42059721  0.48096066    -0.01600
Br741      Br  0.18612837  0.55120444  0.50778905    -0.01600
Br742      Br  0.25081730  0.59280726  0.48100607    -0.01600
C743        C  0.40220560  0.45531020  0.37988197    -0.02700
C744        C  0.39823611  0.50001731  0.37093833     0.07000
C745        C  0.42395458  0.52471790  0.35988233    -0.02800
C746        C  0.45346987  0.50655395  0.36186076    -0.02800
C747        C  0.45750088  0.46231156  0.37189223     0.07100
C748        C  0.43152816  0.43652910  0.37977248    -0.03000
Br749      Br  0.43522533  0.37483537  0.39066941    -0.01600
Br750      Br  0.36778422  0.41774885  0.39113825    -0.01600
Br751      Br  0.48811644  0.54491086  0.35418776    -0.01600
Br752      Br  0.42020843  0.58408272  0.34217745    -0.01600
C753        C  0.18501017  0.52927824  0.36979642    -0.02700
C754        C  0.20834965  0.50282273  0.38407589     0.07000
C755        C  0.20061269  0.46530061  0.40326702    -0.02800
C756        C  0.16984342  0.45529894  0.40932603    -0.02800
C757        C  0.14659077  0.47927980  0.39297276     0.07100
C758        C  0.15409174  0.51716741  0.37385181    -0.03000
Br759      Br  0.12206444  0.55293195  0.35420336    -0.01600
Br760      Br  0.19552381  0.58080436  0.34348984    -0.01600
Br761      Br  0.15922769  0.41211489  0.44303446    -0.01600
Br762      Br  0.23203040  0.42615452  0.41979041    -0.01600
C763        C  0.33600736  0.50892138  0.25624575    -0.02700
C764        C  0.30857389  0.51960777  0.27290689     0.07000
C765        C  0.28101066  0.50145198  0.26147427    -0.02800
C766        C  0.28092350  0.47289578  0.23428239    -0.02800
C767        C  0.30828404  0.46304353  0.21696360     0.07100
C768        C  0.33590452  0.48129829  0.22842132    -0.03000
Br769      Br  0.37381166  0.46966689  0.20576986    -0.01600
Br770      Br  0.37404767  0.53229225  0.27196733    -0.01600
Br771      Br  0.24323923  0.44516597  0.22167472    -0.01600
Br772      Br  0.24309406  0.51598509  0.28311965    -0.01600
C773        C  0.30394753  0.95239167  0.34641736    -0.02700
C774        C  0.29379803  0.93649572  0.37779748     0.07000
C775        C  0.31257110  0.93990690  0.40631728    -0.02800
C776        C  0.34035575  0.96280747  0.40389028    -0.02800
C777        C  0.34937931  0.98234270  0.37279283     0.07100
C778        C  0.33170040  0.97502260  0.34386470    -0.03000
Br779      Br  0.34572044  0.99355024  0.30029513    -0.01600
Br780      Br  0.27925478  0.94313781  0.30708966    -0.01600
Br781      Br  0.36489346  0.96917731  0.44375382    -0.01600
Br782      Br  0.29950902  0.91503911  0.44906885    -0.01600
C783        C  0.07475869  0.95752934  0.36434674    -0.02700
C784        C  0.09832349  0.98050653  0.38021914     0.07000
C785        C  0.09203884  0.02153583  0.39322355    -0.02800
C786        C  0.06202649  0.03857772  0.39197863    -0.02800
C787        C  0.03805343  0.01516219  0.37660282     0.07100
C788        C  0.04482675  0.97430301  0.36290481    -0.03000
Br789      Br  0.01318227  0.93777388  0.34500917    -0.01600
Br790      Br  0.08331662  0.90296375  0.34328013    -0.01600
Br791      Br  0.05460919  0.09369600  0.41260878    -0.01600
Br792      Br  0.12433310  0.05376432  0.41412499    -0.01600
C793        C  0.14944937  0.96199630  0.26036901    -0.02700
C794        C  0.17249763  0.97340481  0.28350925     0.07000
C795        C  0.18837093  0.01356509  0.27680431    -0.02800
C796        C  0.18327423  0.03844620  0.24661389    -0.02800
C797        C  0.16014085  0.02706764  0.22403076     0.07100
C798        C  0.14235973  0.98966045  0.23217448    -0.03000
Br799      Br  0.10710866  0.97663914  0.20499451    -0.01600
Br800      Br  0.12828184  0.90716052  0.26509183    -0.01600
Br801      Br  0.20981926  0.08649418  0.23506355    -0.01600
Br802      Br  0.21645191  0.03790322  0.30878354    -0.01600
C803        C  0.20494828  0.73347518  0.37713801    -0.02700
C804        C  0.21502967  0.76985740  0.35815295     0.07000
C805        C  0.24088170  0.76593908  0.33729497    -0.02800
C806        C  0.25754765  0.72628540  0.33690936    -0.02800
C807        C  0.25005715  0.69152392  0.35975772     0.07100
C808        C  0.22291196  0.69556903  0.37964323    -0.03000
Br809      Br  0.21047163  0.65307562  0.41417633    -0.01600
Br810      Br  0.16696452  0.73734238  0.40203850    -0.01600
Br811      Br  0.29009149  0.72015671  0.30469674    -0.01600
Br812      Br  0.25463212  0.81605049  0.31126141    -0.01600
C813        C  0.15523664  0.83246261  0.50711245    -0.02700
C814        C  0.14061713  0.83678025  0.47541446     0.07000
C815        C  0.10836558  0.83552744  0.47487887    -0.02800
C816        C  0.09134805  0.83796830  0.50524354    -0.02800
C817        C  0.10644423  0.84383021  0.53668072     0.07100
C818        C  0.13869210  0.83790182  0.53728496    -0.03000
Br819      Br  0.16120457  0.83638048  0.57903851    -0.01600
Br820      Br  0.19814446  0.81655724  0.50927648    -0.01600
Br821      Br  0.04730482  0.83329807  0.50213916    -0.01600
Br822      Br  0.08719094  0.83051363  0.43265907    -0.01600
C823        C  0.25267394  0.01834533  0.46528756    -0.02700
C824        C  0.22813348  0.99088567  0.47442409     0.07000
C825        C  0.22702613  0.97121352  0.50675875    -0.02800
C826        C  0.25145830  0.97607962  0.52890337    -0.02800
C827        C  0.27526010  0.00488430  0.52032445     0.07100
C828        C  0.27645174  0.02459877  0.48809775    -0.03000
Br829      Br  0.31117065  0.05968670  0.47575447    -0.01600
Br830      Br  0.25424789  0.04617193  0.42118303    -0.01600
Br831      Br  0.25221449  0.94417219  0.57142450    -0.01600
Br832      Br  0.19172795  0.93776351  0.52038091    -0.01600
O833        O  0.65292246  0.84172455  0.41436078    -0.86200
O834        O  0.63116371  0.92026013  0.39230693    -0.83300
C835        C  0.62946442  0.95961381  0.38300316     0.97300
O836        O  0.65339453  0.98024871  0.37418189    -0.83300
O837        O  0.69568111  0.98071075  0.42722287    -0.85900
C838        C  0.71592615  0.96588008  0.44704627     1.01800
O839        O  0.72880606  0.93012956  0.44238756    -0.78700
O840        O  0.68372032  0.87184636  0.44978815    -0.78900
C841        C  0.66004595  0.85011541  0.44464865     1.01700
O842        O  0.68843192  0.83755156  0.35016394    -0.86200
O843        O  0.65976003  0.91821044  0.32768196    -0.83300
C844        C  0.67888323  0.94552134  0.31503638     0.97300
O845        O  0.70249085  0.95287883  0.33157633    -0.83300
O846        O  0.74369943  0.95873061  0.38198105    -0.85900
C847        C  0.76170514  0.92641038  0.38130579     1.01700
O848        O  0.75230585  0.88809353  0.38698114    -0.78700
O849        O  0.71042669  0.82172690  0.39833513    -0.78900
C850        C  0.70474909  0.81229494  0.36847463     1.01700
Cr851      Cr  0.66065361  0.88079934  0.37193636     1.93700
Cr852      Cr  0.69817484  0.96406717  0.37955573     1.93200
Cr853      Cr  0.71677834  0.87972442  0.41712894     1.39100
O854        O  0.69188721  0.90836323  0.38936361    -1.24000
O855        O  0.85033385  0.61435222  0.39956229    -0.86200
O856        O  0.86026589  0.55004830  0.35358167    -0.83300
C857        C  0.86691369  0.51820944  0.37320972     0.97300
O858        O  0.84675228  0.50266971  0.39273809    -0.83300
O859        O  0.79138189  0.49101519  0.42655278    -0.85900
C860        C  0.79219253  0.51416128  0.45203106     1.01800
O861        O  0.80171566  0.55214242  0.44886770    -0.78700
O862        O  0.80899768  0.63383897  0.42436219    -0.78900
C863        C  0.83777138  0.63046068  0.42510702     1.01700
O864        O  0.79892700  0.64926251  0.35737102    -0.86200
O865        O  0.80841330  0.57474396  0.31452173    -0.83300
C866        C  0.80988035  0.53440996  0.30759955     0.97300
O867        O  0.81428292  0.50582808  0.33060959    -0.83300
O868        O  0.75967015  0.50470440  0.36560590    -0.85900
C869        C  0.73937713  0.51812462  0.38541776     1.01700
O870        O  0.74620087  0.54282681  0.40896606    -0.78700
O871        O  0.75853264  0.61828343  0.37828992    -0.78900
C872        C  0.77038647  0.65074728  0.36418242     1.01700
Cr873      Cr  0.82765988  0.59559750  0.35770883     1.93700
Cr874      Cr  0.80347908  0.50506780  0.37912673     1.93200
Cr875      Cr  0.78046307  0.58539198  0.41311072     1.39100
O876        O  0.80339289  0.56206983  0.38257126    -1.24000
O877        O  0.62585973  0.13103540  0.09143217    -0.86200
O878        O  0.61269388  0.06429071  0.13781145    -0.83300
C879        C  0.60787383  0.03746228  0.11537079     0.97300
O880        O  0.63026176  0.02456750  0.09809056    -0.83300
O881        O  0.69091681  0.01808919  0.07250577    -0.85900
C882        C  0.69607564  0.04485888  0.04846492     1.01800
O883        O  0.69036226  0.08418247  0.05108681    -0.78700
O884        O  0.66925137  0.15773012  0.07406893    -0.78900
C885        C  0.64149275  0.14901339  0.06782654     1.01700
O886        O  0.66642817  0.16882534  0.14135018    -0.86200
O887        O  0.65867157  0.08880787  0.18247145    -0.83300
C888        C  0.65847211  0.04758027  0.18887723     0.97300
O889        O  0.65646251  0.02153968  0.16499038    -0.83300
O890        O  0.71377232  0.02311129  0.13804652    -0.85900
C891        C  0.73668298  0.03982025  0.12339633     1.01700
O892        O  0.73372545  0.07255838  0.10364188    -0.78700
O893        O  0.71245666  0.14631902  0.13125687    -0.78900
C894        C  0.69502090  0.17548187  0.14124963     1.01700
Cr895      Cr  0.64312251  0.11205970  0.13705911     1.93700
Cr896      Cr  0.67237807  0.02618668  0.11800666     1.93200
Cr897      Cr  0.69954487  0.11332081  0.09221490     1.39100
O898        O  0.67227604  0.08364694  0.11619276    -1.24000
O899        O  0.83135734  0.34766844  0.08242914    -0.86200
O900        O  0.85965516  0.41626861  0.11052705    -0.83300
C901        C  0.86334403  0.45598163  0.11596533     0.97300
O902        O  0.84087869  0.47970246  0.12335082    -0.83300
O903        O  0.80409033  0.48957000  0.06740390    -0.85900
C904        C  0.78326391  0.48146581  0.04691316     1.01800
O905        O  0.76403992  0.45214110  0.05336174    -0.78700
O906        O  0.80428445  0.38675272  0.04583339    -0.78900
C907        C  0.82564856  0.36004121  0.05177072     1.01700
O908        O  0.78955102  0.34335634  0.14438074    -0.86200
O909        O  0.82367357  0.41273801  0.17170668    -0.83300
C910        C  0.80644890  0.44318112  0.18235330     0.97300
O911        O  0.78810188  0.46235429  0.16271203    -0.83300
O912        O  0.75098066  0.47663270  0.11022420    -0.85900
C913        C  0.73056300  0.44798243  0.11524135     1.01700
O914        O  0.73661691  0.40865337  0.10916720    -0.78700
O915        O  0.77396353  0.33588742  0.09403076    -0.78900
C916        C  0.77188717  0.32479049  0.12427727     1.01700
Cr917      Cr  0.82407248  0.38161207  0.12628453     1.93700
Cr918      Cr  0.79630183  0.47306922  0.11512112     1.93200
Cr919      Cr  0.77134554  0.39700060  0.07787833     1.39100
O920        O  0.79771651  0.41745840  0.10663339    -1.24000
O921        O  0.92146940  0.84908611  0.06136274    -0.86200
O922        O  0.92948375  0.93164507  0.03523709    -0.83300
C923        C  0.93478950  0.97178300  0.03328643     0.97300
O924        O  0.93214024  0.99353782  0.05924196    -0.83300
O925        O  0.87566179  0.97851804  0.09034029    -0.85900
C926        C  0.85576560  0.96131163  0.10958168     1.01800
O927        O  0.86273591  0.92900399  0.12881124    -0.78700
O928        O  0.87815989  0.86392804  0.08534326    -0.78900
C929        C  0.89260262  0.84852029  0.06068224     1.01700
O930        O  0.96875678  0.86662630  0.11040983    -0.86200
O931        O  0.47979159  0.94504388  0.08001612    -0.83300
C932        C  0.48424741  0.96973416  0.10420860     0.97300
O933        O  0.46200312  0.98101250  0.12239588    -0.83300
O934        O  0.90544482  0.97776041  0.15293464    -0.85900
C935        C  0.91184250  0.95119845  0.17656707     1.01700
O936        O  0.91524886  0.91078093  0.17059465    -0.78700
O937        O  0.92796215  0.83476959  0.13017066    -0.78900
C938        C  0.95652360  0.83373400  0.12391787     1.01700
Cr939      Cr  0.94784154  0.89936616  0.07386722     1.93700
Cr940      Cr  0.91876600  0.97837465  0.10558030     1.93200
Cr941      Cr  0.89790179  0.88655165  0.12729987     1.39100
O942        O  0.92153290  0.92136212  0.10234347    -1.24000
O943        O  0.55738714  0.63930000  0.06080171    -0.86200
O944        O  0.53612678  0.56171451  0.04609093    -0.83300
C945        C  0.52524503  0.52442257  0.04829427     0.97300
O946        O  0.52616880  0.50320100  0.07578898    -0.83300
O947        O  0.58604879  0.50489991  0.10291490    -0.85900
C948        C  0.60888823  0.52007851  0.11807116     1.01800
O949        O  0.60585503  0.55295866  0.13605157    -0.78700
O950        O  0.59802162  0.61770020  0.08839010    -0.78900
C951        C  0.58588776  0.63175208  0.06123425     1.01700
O952        O  0.00887623  0.64354596  0.11229195    -0.86200
O953        O  0.98739749  0.56498995  0.09408833    -0.83300
C954        C  0.98173776  0.53868254  0.11843795     0.97300
O955        O  0.00284080  0.52625589  0.13809629    -0.83300
O956        O  0.55981864  0.51607505  0.16636134    -0.85900
C957        C  0.55999936  0.54455185  0.18820465     1.01700
O958        O  0.56012052  0.58503817  0.17922956    -0.78700
O959        O  0.55346784  0.66153000  0.13289986    -0.78900
C960        C  0.52557296  0.67084610  0.12638039     1.01700
Cr961      Cr  0.52446444  0.60081809  0.08114387     1.93700
Cr962      Cr  0.54431769  0.51729016  0.11983241     1.93200
Cr963      Cr  0.57689332  0.60315901  0.13274293     1.39100
O964        O  0.54831251  0.57409832  0.11160840    -1.24000
O965        O  0.92991698  0.13452141  0.42280893    -0.86200
O966        O  0.94295773  0.04905071  0.44331907    -0.83300
C967        C  0.95247641  0.01033796  0.44289627     0.97300
O968        O  0.95612582  0.99253195  0.41528173    -0.83300
O969        O  0.90207904  0.99231895  0.38233072    -0.85900
C970        C  0.87789186  0.00873972  0.37032294     1.01800
O971        O  0.87784208  0.04632957  0.35593208    -0.78700
O972        O  0.88828803  0.11143932  0.40114026    -0.78900
C973        C  0.90150582  0.12972317  0.42526766     1.01700
O974        O  0.97819125  0.13036794  0.37579089    -0.86200
O975        O  0.49704525  0.05004390  0.40261005    -0.83300
C976        C  0.50600074  0.02992507  0.37735635     0.97300
O977        O  0.48675445  0.02059617  0.35514865    -0.83300
O978        O  0.93218286  0.01181824  0.32146555    -0.85900
C979        C  0.92801374  0.04207523  0.30002519     1.01700
O980        O  0.92312055  0.08077356  0.30939471    -0.78700
O981        O  0.93470560  0.15135103  0.35254823    -0.78900
C982        C  0.96324429  0.15768652  0.35803684     1.01700
Cr983      Cr  0.95987899  0.08934503  0.40857537     1.93700
Cr984      Cr  0.94363727  0.00943332  0.36917079     1.93200
Cr985      Cr  0.90824998  0.09583335  0.35635174     1.39100
O986        O  0.93723620  0.06507091  0.37732236    -1.24000
O987        O  0.55691879  0.33191803  0.43152604    -0.86200
O988        O  0.53794733  0.41028054  0.45309276    -0.83300
C989        C  0.52935446  0.44907280  0.45293726     0.97300
O990        O  0.53164662  0.47292783  0.42679954    -0.83300
O991        O  0.59223764  0.47293485  0.40389285    -0.85900
C992        C  0.61578875  0.45848894  0.38952872     1.01800
O993        O  0.61409571  0.42659690  0.37028689    -0.78700
O994        O  0.60028822  0.35635291  0.41231359    -0.78900
C995        C  0.58515345  0.33793617  0.43613791     1.01700
O996        O  0.01366695  0.34246779  0.37703385    -0.86200
O997        O  0.99351173  0.41694254  0.40461418    -0.83300
C998        C  0.98893995  0.44439705  0.38086890     0.97300
O999        O  0.01121593  0.45903909  0.36391348    -0.83300
O1000       O  0.57005698  0.46988668  0.33768676    -0.85900
C1001       C  0.56892477  0.44391061  0.31410365     1.01700
O1002       O  0.56937864  0.40287028  0.32078107    -0.78700
O1003       O  0.55889761  0.32314359  0.35939383    -0.78900
C1004       C  0.53025973  0.31589899  0.36101478     1.01700
Cr1005     Cr  0.52748700  0.37731639  0.41351940     1.93700
Cr1006     Cr  0.55163668  0.46393157  0.38305165     1.93200
Cr1007     Cr  0.58351460  0.37850686  0.36698712     1.39100
O1008       O  0.55420655  0.40643213  0.38772248    -1.24000
O1009       O  0.80840133  0.12873713  0.54724821    -0.86200
O1010       O  0.76959596  0.06310156  0.55343982    -0.83300
C1011       C  0.78590110  0.03037699  0.54782928     0.97300
O1012       O  0.80693871  0.01819816  0.56765434    -0.83300
O1013       O  0.84599982  0.02023386  0.62307661    -0.85900
C1014       C  0.86917588  0.04225115  0.61461577     1.01800
O1015       O  0.86635688  0.08175621  0.60625207    -0.78700
O1016       O  0.84123650  0.15659044  0.58177132    -0.78900
C1017       C  0.83318391  0.14811146  0.55160565     1.01700
O1018       O  0.77784209  0.17204089  0.60136101    -0.86200
O1019       O  0.74262548  0.09769006  0.61072100    -0.83300
C1020       C  0.73579107  0.05800700  0.61434880     0.97300
O1021       O  0.75611768  0.02923733  0.61117759    -0.83300
O1022       O  0.79456014  0.03986489  0.66340118    -0.85900
C1023       C  0.81612154  0.05195614  0.68154308     1.01700
O1024       O  0.83445353  0.08150060  0.67016141    -0.78700
O1025       O  0.80410979  0.15895392  0.64716413    -0.78900
C1026       C  0.78348584  0.18025490  0.63150851     1.01700
Cr1027     Cr  0.77690690  0.11403164  0.58052651     1.93700
Cr1028     Cr  0.80134556  0.03137066  0.61558248     1.93200
Cr1029     Cr  0.83400342  0.11837080  0.62526946     1.39100
O1030       O  0.80421103  0.08803912  0.60729368    -1.24000
O1031       O  0.67584831  0.33893224  0.56869441    -0.86200
O1032       O  0.68665135  0.41962821  0.54091318    -0.83300
C1033       C  0.69610735  0.45783290  0.53773288     0.97300
O1034       O  0.69413761  0.48258298  0.56222734    -0.83300
O1035       O  0.63669464  0.47918410  0.59373422    -0.85900
C1036       C  0.61502013  0.46282731  0.61085995     1.01800
O1037       O  0.61918587  0.42970032  0.63004514    -0.78700
O1038       O  0.63296290  0.36121935  0.58914722    -0.78900
C1039       C  0.64715607  0.34188712  0.56607319     1.01700
O1040       O  0.72329826  0.35479938  0.61717774    -0.86200
O1041       O  0.73830692  0.43050520  0.58435460    -0.83300
C1042       C  0.74386203  0.45832984  0.60605386     0.97300
O1043       O  0.72265523  0.47101231  0.62491701    -0.83300
O1044       O  0.66688780  0.47586756  0.65680746    -0.85900
C1045       C  0.66818195  0.44844255  0.68100015     1.01700
O1046       O  0.66770767  0.40777955  0.67561206    -0.78700
O1047       O  0.68019957  0.33170929  0.63911040    -0.78900
C1048       C  0.70904094  0.32787099  0.63564439     1.01700
Cr1049     Cr  0.70393905  0.38792175  0.58002916     1.93700
Cr1050     Cr  0.67963406  0.47247389  0.60913211     1.93200
Cr1051     Cr  0.65206227  0.38419459  0.63173729     1.39100
O1052       O  0.67871304  0.41485805  0.60750052    -1.24000
O1053       O  0.79844929  0.87552166  0.94326150    -0.86200
O1054       O  0.75139315  0.93478923  0.93198904    -0.83300
C1055       C  0.76338093  0.96846837  0.94189183     0.97300
O1056       O  0.78895840  0.97944722  0.92968099    -0.83300
O1057       O  0.84004417  0.98054299  0.88554881    -0.85900
C1058       C  0.86290897  0.95530259  0.88332219     1.01800
O1059       O  0.85932438  0.91516348  0.87928132    -0.78700
O1060       O  0.83025958  0.84494225  0.90777911    -0.78900
C1061       C  0.82240825  0.85332259  0.93818282     1.01700
O1062       O  0.77588369  0.82763685  0.89226276    -0.86200
O1063       O  0.73710041  0.90073281  0.87143593    -0.83300
C1064       C  0.73141879  0.94072819  0.86416347     0.97300
O1065       O  0.75019607  0.97022626  0.87208505    -0.83300
O1066       O  0.79934737  0.97626386  0.83157304    -0.85900
C1067       C  0.81440965  0.95511125  0.81086812     1.01700
O1068       O  0.82459571  0.91719118  0.81888866    -0.78700
O1069       O  0.79056373  0.84410109  0.84285378    -0.78900
C1070       C  0.77373443  0.82096392  0.86195260     1.01700
Cr1071     Cr  0.76798461  0.88659126  0.90765397     1.93700
Cr1072     Cr  0.79499323  0.97168556  0.88041064     1.93200
Cr1073     Cr  0.82381240  0.88189745  0.86353361     1.39100
O1074       O  0.79634762  0.91431320  0.88362055    -1.24000
O1075       O  0.67962283  0.61600782  0.93618018    -0.86200
O1076       O  0.72768493  0.55915257  0.92662472    -0.83300
C1077       C  0.71409306  0.52858171  0.94098006     0.97300
O1078       O  0.69028404  0.51348484  0.92826349    -0.83300
O1079       O  0.64056386  0.50673525  0.88578165    -0.85900
C1080       C  0.61678401  0.52893372  0.87955065     1.01800
O1081       O  0.61850598  0.56800943  0.86959260    -0.78700
O1082       O  0.64236672  0.63837934  0.90155780    -0.78900
C1083       C  0.65274919  0.63077318  0.93168991     1.01700
O1084       O  0.70176643  0.66558004  0.88285274    -0.86200
O1085       O  0.74103351  0.59381300  0.86507472    -0.83300
C1086       C  0.74851011  0.55393966  0.86181170     0.97300
O1087       O  0.72972166  0.52357660  0.86965090    -0.83300
O1088       O  0.67928146  0.51488514  0.82937897    -0.85900
C1089       C  0.66709099  0.53871923  0.80671356     1.01700
O1090       O  0.65656409  0.57636320  0.81274795    -0.78700
O1091       O  0.68087157  0.65203467  0.83581102    -0.78900
C1092       C  0.69695274  0.67641101  0.85301744     1.01700
Cr1093     Cr  0.70977580  0.60640145  0.90018846     1.93700
Cr1094     Cr  0.68467130  0.51957154  0.87832023     1.93200
Cr1095     Cr  0.65224215  0.60713242  0.85685753     1.39100
O1096       O  0.68170475  0.57714185  0.87786082    -1.24000
O1097       O  0.60283305  0.87525341  0.59175226    -0.86200
O1098       O  0.61411918  0.94114954  0.63490322    -0.83300
C1099       C  0.61784204  0.97371923  0.61488269     0.97300
O1100       O  0.59515629  0.98854964  0.59869851    -0.83300
O1101       O  0.53641364  0.99670044  0.57271879    -0.85900
C1102       C  0.53631736  0.97555142  0.54643899     1.01800
O1103       O  0.54644966  0.93736905  0.54756655    -0.78700
O1104       O  0.56068945  0.85465113  0.56861768    -0.78900
C1105       C  0.58944314  0.85786279  0.56741906     1.01700
O1106       O  0.55729468  0.83749338  0.63877095    -0.86200
O1107       O  0.56645819  0.91209783  0.68013308    -0.83300
C1108       C  0.56720590  0.95232802  0.68702495     0.97300
O1109       O  0.56962722  0.98082786  0.66384676    -0.83300
O1110       O  0.01186196  0.97727678  0.63631508    -0.85900
C1111       C  0.99008310  0.96502403  0.61810039     1.01700
O1112       O  0.99554457  0.94082048  0.59368315    -0.78700
O1113       O  0.01285613  0.86058047  0.61837663    -0.78900
C1114       C  0.52903326  0.83052015  0.63307405     1.01700
Cr1115     Cr  0.58308876  0.89300323  0.63512774     1.93700
Cr1116     Cr  0.55364402  0.98096367  0.61749135     1.93200
Cr1117     Cr  0.53081923  0.89947253  0.58415454     1.39100
O1118       O  0.55543101  0.92401377  0.61287694    -1.24000
O1119       O  0.88577388  0.63106207  0.58054967    -0.86200
O1120       O  0.86971630  0.56761969  0.62809078    -0.83300
C1121       C  0.86482695  0.53670131  0.60857166     0.97300
O1122       O  0.88679673  0.52123092  0.59221850    -0.83300
O1123       O  0.94557496  0.50714118  0.56796284    -0.85900
C1124       C  0.95007493  0.52963136  0.54156593     1.01800
O1125       O  0.94413944  0.56933996  0.54064622    -0.78700
O1126       O  0.93000722  0.64984512  0.56018188    -0.78900
C1127       C  0.90149370  0.64535724  0.55568614     1.01700
O1128       O  0.93144552  0.66650980  0.62771324    -0.86200
O1129       O  0.91835786  0.59015750  0.67246208    -0.83300
C1130       C  0.91577180  0.54956852  0.68062336     0.97300
O1131       O  0.91184723  0.52222071  0.65820631    -0.83300
O1132       O  0.47013152  0.51750599  0.63062144    -0.85900
C1133       C  0.49285515  0.53111499  0.61366125     1.01700
O1134       O  0.48975229  0.56006725  0.59067288    -0.78700
O1135       O  0.97425674  0.63582778  0.61567260    -0.78900
C1136       C  0.96054184  0.66856511  0.62554526     1.01700
Cr1137     Cr  0.90338453  0.61230211  0.62613814     1.93700
Cr1138     Cr  0.92830915  0.52141792  0.61196617     1.93200
Cr1139     Cr  0.95767740  0.60226826  0.57906905     1.39100
O1140       O  0.93017233  0.57857497  0.60613238    -1.24000
O1141       O  0.59892178  0.11717036  0.90877962    -0.86200
O1142       O  0.61088454  0.05622544  0.85951685    -0.83300
C1143       C  0.61633544  0.02052074  0.87476398     0.97300
O1144       O  0.59597651  0.00311773  0.89327714    -0.83300
O1145       O  0.53898143  0.99072700  0.92483606    -0.85900
C1146       C  0.53608219  0.01142688  0.95118872     1.01800
O1147       O  0.54540268  0.04992490  0.95099011    -0.78700
O1148       O  0.55603167  0.13452845  0.93174742    -0.78900
C1149       C  0.58476246  0.13263163  0.93373409     1.01700
O1150       O  0.55134565  0.15443504  0.86305255    -0.86200
O1151       O  0.56222552  0.08427970  0.81846401    -0.83300
C1152       C  0.56283399  0.04454144  0.80987019     0.97300
O1153       O  0.56465603  0.01415512  0.83166719    -0.83300
O1154       O  0.00872238  0.01352446  0.86507812    -0.85900
C1155       C  0.98750714  0.02490575  0.88460703     1.01700
O1156       O  0.99369333  0.04899832  0.90864547    -0.78700
O1157       O  0.00802206  0.13110445  0.88403693    -0.78900
C1158       C  0.52289402  0.15949364  0.86832433     1.01700
Cr1159     Cr  0.57877061  0.10116102  0.86416372     1.93700
Cr1160     Cr  0.55246419  0.00978304  0.87921442     1.93200
Cr1161     Cr  0.52766580  0.08867256  0.91594306     1.39100
O1162       O  0.55249289  0.06675134  0.88571810    -1.24000
O1163       O  0.88040381  0.36965041  0.90165658    -0.86200
O1164       O  0.87167581  0.43678545  0.85356354    -0.83300
C1165       C  0.86594820  0.46945317  0.87099912     0.97300
O1166       O  0.88584270  0.48190857  0.89151625    -0.83300
O1167       O  0.94207381  0.48482318  0.92641342    -0.85900
C1168       C  0.94294793  0.45931460  0.95192065     1.01800
O1169       O  0.93523692  0.42055236  0.94961523    -0.78700
O1170       O  0.92183528  0.34339765  0.92421893    -0.78900
C1171       C  0.89333814  0.35006032  0.92643278     1.01700
O1172       O  0.92840765  0.33160634  0.85910464    -0.86200
O1173       O  0.92166613  0.41054226  0.81482125    -0.83300
C1174       C  0.92187902  0.45151600  0.80745705     0.97300
O1175       O  0.91962699  0.47900990  0.83021282    -0.83300
O1176       O  0.47359132  0.47483504  0.86501668    -0.85900
C1177       C  0.49430150  0.45904125  0.88380043     1.01700
O1178       O  0.48828130  0.43026517  0.90616476    -0.78700
O1179       O  0.97103476  0.35903356  0.87491149    -0.78900
C1180       C  0.95707739  0.32707548  0.86432029     1.01700
Cr1181     Cr  0.90249118  0.38847032  0.85879193     1.93700
Cr1182     Cr  0.92968398  0.47599518  0.87890704     1.93200
Cr1183     Cr  0.95232804  0.39026835  0.91157689     1.39100
O1184       O  0.92842938  0.41855328  0.88271770    -1.24000
C1185       C  0.52017628  0.23918331  0.87775223    -0.02700
C1186       C  0.50802047  0.20289590  0.86197531     0.07000
C1187       C  0.98003679  0.20859735  0.84482549    -0.02800
C1188       C  0.96412696  0.24910945  0.84336259    -0.02800
C1189       C  0.97456967  0.28452884  0.86218914     0.07100
C1190       C  0.50258270  0.27726030  0.88069438    -0.03000
Br1191     Br  0.51621482  0.31666983  0.91447499    -0.01600
Br1192     Br  0.56088717  0.23677185  0.89704019    -0.01600
Br1193     Br  0.92853507  0.25542478  0.81502698    -0.01600
Br1194     Br  0.96421495  0.15948224  0.82163511    -0.01600
C1195       C  0.94417190  0.52642631  0.73358791    -0.02700
C1196       C  0.91634304  0.53037422  0.71575285     0.07000
C1197       C  0.89146759  0.50391410  0.72659667    -0.02800
C1198       C  0.89429330  0.47459720  0.75463505    -0.02800
C1199       C  0.92209450  0.47062256  0.77240633     0.07100
C1200       C  0.94708108  0.49663680  0.76146173    -0.03000
Br1201     Br  0.98584239  0.49004968  0.78419367    -0.01600
Br1202     Br  0.97863919  0.56100320  0.71920729    -0.01600
Br1203     Br  0.85965842  0.44026662  0.76925965    -0.01600
Br1204     Br  0.85300677  0.50792558  0.70283624    -0.01600
C1205       C  0.53780248  0.98153941  0.73524880    -0.02700
C1206       C  0.56623443  0.96958267  0.72146053     0.07000
C1207       C  0.59309870  0.98803164  0.73445554    -0.02800
C1208       C  0.59159830  0.01771885  0.76073706    -0.02800
C1209       C  0.56319941  0.02962278  0.77470703     0.07100
C1210       C  0.53629810  0.01137873  0.76154006    -0.03000
Br1211     Br  0.99698422  0.02658649  0.78093705    -0.01600
Br1212     Br  0.00090780  0.95762042  0.71788849    -0.01600
Br1213     Br  0.62876592  0.04164423  0.77822112    -0.01600
Br1214     Br  0.63227125  0.97216019  0.71620380    -0.01600
C1215       C  0.98530420  0.78298758  0.65318240    -0.02700
C1216       C  0.51462340  0.78674118  0.63912458     0.07000
C1217       C  0.52724991  0.75028951  0.62368931    -0.02800
C1218       C  0.50940315  0.71273949  0.61890430    -0.02800
C1219       C  0.97933956  0.70915437  0.63158409     0.07100
C1220       C  0.96830314  0.74384585  0.65093821    -0.03000
Br1221     Br  0.93017509  0.73852474  0.67507729    -0.01600
Br1222     Br  0.96876558  0.83111585  0.67728673    -0.01600
Br1223     Br  0.52679646  0.67026477  0.58925584    -0.01600
Br1224     Br  0.56872380  0.75264538  0.60649969    -0.01600
C1225       C  0.78439086  0.49667003  0.84306344    -0.02700
C1226       C  0.78039881  0.53953604  0.85409854     0.07000
C1227       C  0.80635119  0.56184516  0.86579926    -0.02800
C1228       C  0.83475852  0.53981180  0.86949100    -0.02800
C1229       C  0.83674753  0.49424172  0.86485344     0.07100
C1230       C  0.81111746  0.47310044  0.85106455    -0.03000
Br1231     Br  0.81013194  0.41074905  0.84571836    -0.01600
Br1232     Br  0.75278040  0.46908805  0.81728927    -0.01600
Br1233     Br  0.87082555  0.57337077  0.87913847    -0.01600
Br1234     Br  0.80349734  0.62204863  0.87781968    -0.01600
C1235       C  0.58021627  0.46647915  0.87291970    -0.02700
C1236       C  0.58586713  0.50934556  0.88338838     0.07000
C1237       C  0.56092566  0.53515842  0.89408894    -0.02800
C1238       C  0.53106860  0.51844872  0.89402578    -0.02800
C1239       C  0.52549227  0.47678226  0.88202741     0.07100
C1240       C  0.54997373  0.45107518  0.87112254    -0.03000
Br1241     Br  0.54167648  0.39613571  0.85113331    -0.01600
Br1242     Br  0.61316476  0.42855630  0.85958972    -0.01600
Br1243     Br  0.49768487  0.55259174  0.91113711    -0.01600
Br1244     Br  0.56679185  0.59336471  0.90992644    -0.01600
C1245       C  0.90159268  0.01196988  0.90004783    -0.02700
C1246       C  0.89481504  0.97321654  0.88352627     0.07000
C1247       C  0.91852396  0.95313497  0.86497151    -0.02800
C1248       C  0.94877678  0.96905650  0.86575815    -0.02800
C1249       C  0.95534068  0.00849229  0.88162144     0.07100
C1250       C  0.93089755  0.03078581  0.89734569    -0.03000
Br1251     Br  0.93597978  0.08888068  0.91399014    -0.01600
Br1252     Br  0.87157521  0.03924714  0.92821943    -0.01600
Br1253     Br  0.98080258  0.93445992  0.84601363    -0.01600
Br1254     Br  0.91012008  0.90549933  0.83572673    -0.01600
C1255       C  0.67444361  0.93161852  0.85589558    -0.02700
C1256       C  0.70111997  0.95646358  0.85149352     0.07000
C1257       C  0.69784191  0.00159575  0.84553882    -0.02800
C1258       C  0.67126442  0.02275680  0.85592370    -0.02800
C1259       C  0.64553140  0.99802817  0.86700944     0.07100
C1260       C  0.64665375  0.95212535  0.86426496    -0.03000
Br1261     Br  0.61055210  0.91669951  0.87054703    -0.01600
Br1262     Br  0.67472278  0.87188139  0.84378732    -0.01600
Br1263     Br  0.67237059  0.08560180  0.85637650    -0.01600
Br1264     Br  0.72989510  0.03417189  0.82243891    -0.01600
C1265       C  0.72178497  0.78587118  0.86843236    -0.02700
C1266       C  0.75036423  0.78875618  0.85111341     0.07000
C1267       C  0.75692531  0.75752086  0.82680042    -0.02800
C1268       C  0.73711258  0.72146265  0.82317941    -0.02800
C1269       C  0.70925904  0.71901088  0.84107954     0.07100
C1270       C  0.70028512  0.75436334  0.85992293    -0.03000
Br1271     Br  0.65904236  0.75569111  0.87732142    -0.01600
Br1272     Br  0.71243390  0.81879952  0.90788962    -0.01600
Br1273     Br  0.74917756  0.67341923  0.79640581    -0.01600
Br1274     Br  0.79505548  0.75993983  0.80258065    -0.01600
C1275       C  0.80133896  0.45274832  0.60147560    -0.02700
C1276       C  0.77484554  0.47815987  0.60715708     0.07000
C1277       C  0.77805435  0.52346727  0.61117535    -0.02800
C1278       C  0.80726060  0.54274538  0.61021778    -0.02800
C1279       C  0.83384780  0.51681924  0.60695879     0.07100
C1280       C  0.83061078  0.47145795  0.60319911    -0.03000
Br1281     Br  0.86594206  0.43323741  0.60285304    -0.01600
Br1282     Br  0.79850959  0.39214003  0.59034546    -0.01600
Br1283     Br  0.81011462  0.60538631  0.61124921    -0.01600
Br1284     Br  0.74246555  0.56071347  0.61486944    -0.01600
C1285       C  0.57729924  0.51696776  0.63173887    -0.02700
C1286       C  0.58439189  0.48286881  0.61024291     0.07000
C1287       C  0.56102537  0.46367011  0.59184530    -0.02800
C1288       C  0.53041643  0.47531217  0.59724681    -0.02800
C1289       C  0.52329055  0.51086279  0.61725574     0.07100
C1290       C  0.54699937  0.53246179  0.63379573    -0.03000
Br1291     Br  0.53812705  0.58355949  0.65867858    -0.01600
Br1292     Br  0.60898651  0.54263860  0.65810541    -0.01600
Br1293     Br  0.49846020  0.44149622  0.57783316    -0.01600
Br1294     Br  0.57131505  0.42485230  0.55679669    -0.01600
C1295       C  0.64169426  0.46913108  0.73438321    -0.02700
C1296       C  0.66886950  0.46678455  0.71532538     0.07000
C1297       C  0.69423407  0.49205442  0.72497702    -0.02800
C1298       C  0.69241100  0.51906795  0.75293629    -0.02800
C1299       C  0.66569826  0.52019012  0.77258773     0.07100
C1300       C  0.64016287  0.49549941  0.76286808    -0.03000
Br1301     Br  0.60255811  0.49938341  0.78775558    -0.01600
Br1302     Br  0.60617520  0.43729127  0.72063725    -0.01600
Br1303     Br  0.72593154  0.55682623  0.76361652    -0.01600
Br1304     Br  0.73214055  0.48893817  0.70056940    -0.01600
C1305       C  0.95319930  0.02404812  0.63536517    -0.02700
C1306       C  0.95839597  0.98227053  0.62226808     0.07000
C1307       C  0.93331331  0.95954486  0.60862910    -0.02800
C1308       C  0.90462257  0.97991896  0.60485148    -0.02800
C1309       C  0.89987827  0.02199353  0.61674586     0.07100
C1310       C  0.92400920  0.04344402  0.63286800    -0.03000
Br1311     Br  0.91717978  0.09932019  0.65262242    -0.01600
Br1312     Br  0.98570909  0.05720949  0.65528519    -0.01600
Br1313     Br  0.87239656  0.95094485  0.58104348    -0.01600
Br1314     Br  0.93704286  0.89946500  0.59607117    -0.01600
C1315       C  0.68018462  0.05986073  0.59816181    -0.02700
C1316       C  0.70392513  0.04292976  0.61876436     0.07000
C1317       C  0.69917612  0.00410785  0.63768097    -0.02800
C1318       C  0.67310259  0.97900792  0.63246384    -0.02800
C1319       C  0.64812283  0.99651530  0.61357361     0.07100
C1320       C  0.65207308  0.03750966  0.59617849    -0.03000
Br1321     Br  0.62077067  0.06309148  0.56722030    -0.01600
Br1322     Br  0.68640638  0.11265163  0.57116919    -0.01600
Br1323     Br  0.67521156  0.91850605  0.64761300    -0.01600
Br1324     Br  0.72846768  0.98525949  0.67165110    -0.01600
C1325       C  0.82631218  0.02352867  0.77577415    -0.02700
C1326       C  0.82011806  0.97793938  0.77723281     0.07000
C1327       C  0.81694725  0.95666057  0.74667853    -0.02800
C1328       C  0.81769975  0.98074544  0.71565689    -0.02800
C1329       C  0.82065269  0.02696679  0.71447902     0.07100
C1330       C  0.82588651  0.04783733  0.74482841    -0.03000
Br1331     Br  0.83059778  0.11019981  0.74440134    -0.01600
Br1332     Br  0.83672757  0.05338381  0.81615550    -0.01600
Br1333     Br  0.81549426  0.94916147  0.67458078    -0.01600
Br1334     Br  0.81006248  0.89469788  0.74702567    -0.01600
C1335       C  0.75864472  0.29348741  0.65475094    -0.02700
C1336       C  0.72672862  0.28953858  0.64956803     0.07000
C1337       C  0.71397669  0.24745281  0.65139797    -0.02800
C1338       C  0.73347086  0.21074559  0.65164828    -0.02800
C1339       C  0.76539502  0.21566238  0.64713627     0.07100
C1340       C  0.77810037  0.25704235  0.65156771    -0.03000
Br1341     Br  0.82180761  0.26415251  0.65176885    -0.01600
Br1342     Br  0.77514438  0.34828973  0.66813422    -0.01600
Br1343     Br  0.71649853  0.15415167  0.66080254    -0.01600
Br1344     Br  0.67021647  0.23904102  0.65222777    -0.01600
C1345       C  0.96263500  0.46798562  0.50638801    -0.02700
C1346       C  0.96910218  0.51058615  0.51587434     0.07000
C1347       C  0.99828017  0.52891277  0.50921649    -0.02800
C1348       C  0.51840191  0.50715117  0.49119409    -0.02800
C1349       C  0.51120741  0.46572725  0.48022897     0.07100
C1350       C  0.98503782  0.44391258  0.49003145    -0.03000
Br1351     Br  0.97549154  0.38553681  0.47753537    -0.01600
Br1352     Br  0.92308436  0.44246705  0.51645255    -0.01600
Br1353     Br  0.55942688  0.52931853  0.48475680    -0.01600
Br1354     Br  0.00902967  0.58691861  0.52174886    -0.01600
C1355       C  0.58322726  0.32639073  0.50114673    -0.02700
C1356       C  0.59992467  0.32601578  0.47025023     0.07000
C1357       C  0.63143769  0.31572057  0.47291828    -0.02800
C1358       C  0.64680592  0.31612869  0.50452420    -0.02800
C1359       C  0.63083038  0.32632245  0.53451172     0.07100
C1360       C  0.59860015  0.32469992  0.53273629    -0.03000
Br1361     Br  0.57576593  0.31291952  0.57363835    -0.01600
Br1362     Br  0.53921482  0.32874500  0.50192088    -0.01600
Br1363     Br  0.68880433  0.29714205  0.50635686    -0.01600
Br1364     Br  0.65308456  0.29724571  0.43351522    -0.01600
C1365       C  0.96552493  0.23953830  0.34233596    -0.02700
C1366       C  0.98007600  0.19852452  0.34658192     0.07000
C1367       C  0.51316352  0.19634467  0.34458617    -0.02800
C1368       C  0.53047147  0.23483608  0.34781925    -0.02800
C1369       C  0.51552743  0.27565497  0.34765575     0.07100
C1370       C  0.98331353  0.27798744  0.34024339    -0.03000
Br1371     Br  0.96496791  0.33174040  0.32390104    -0.01600
Br1372     Br  0.92157309  0.24467285  0.34111554    -0.01600
Br1373     Br  0.57419067  0.23032858  0.35353767    -0.01600
Br1374     Br  0.53405293  0.14285940  0.33474536    -0.01600
C1375       C  0.98961774  0.01496717  0.52459547    -0.02700
C1376       C  0.51679790  0.98973250  0.51808693     0.07000
C1377       C  0.51976034  0.96751180  0.48805953    -0.02800
C1378       C  0.49469137  0.96419256  0.46669991    -0.02800
C1379       C  0.96790367  0.99097551  0.47258667     0.07100
C1380       C  0.96456937  0.01191908  0.50301852    -0.03000
Br1381     Br  0.92477386  0.03329376  0.51592054    -0.01600
Br1382     Br  0.98670815  0.05609265  0.55996418    -0.01600
Br1383     Br  0.49671986  0.92201978  0.43191331    -0.01600
Br1384     Br  0.55917314  0.94541298  0.47441606    -0.01600
C1385       C  0.85290169  0.15320239  0.45750429    -0.02700
C1386       C  0.88479312  0.14419899  0.45715856     0.07000
C1387       C  0.90062405  0.14824512  0.48846671    -0.02800
C1388       C  0.88445218  0.15330849  0.51932423    -0.02800
C1389       C  0.85222315  0.15745102  0.51985026     0.07100
C1390       C  0.83729964  0.16166460  0.48809437    -0.03000
Br1391     Br  0.79495254  0.18032870  0.48614826    -0.01600
Br1392     Br  0.82970599  0.15440114  0.41621135    -0.01600
Br1393     Br  0.90692661  0.15339254  0.56099732    -0.01600
Br1394     Br  0.94485079  0.14658097  0.49076109    -0.01600
C1395       C  0.61598513  0.67268953  0.01374373    -0.02700
C1396       C  0.60399447  0.63376180  0.02852752     0.07000
C1397       C  0.60885339  0.59506775  0.01115827    -0.02800
C1398       C  0.62216945  0.59552668  0.97880849    -0.02800
C1399       C  0.63303057  0.63436199  0.96300234     0.07100
C1400       C  0.63072788  0.67286348  0.98154381    -0.03000
Br1401     Br  0.64993376  0.72500982  0.96418582    -0.01600
Br1402     Br  0.61574959  0.72439055  0.03952163    -0.01600
Br1403     Br  0.62798788  0.54078538  0.95786322    -0.01600
Br1404     Br  0.60103868  0.53958163  0.03294748    -0.01600
C1405       C  0.50819414  0.46509060  0.01323635    -0.02700
C1406       C  0.50580949  0.50873592  0.02171225     0.07000
C1407       C  0.98019878  0.53411147  0.01058571    -0.02800
C1408       C  0.95712770  0.51561781  0.99145536    -0.02800
C1409       C  0.96025247  0.47266454  0.98121418     0.07100
C1410       C  0.98531569  0.44680622  0.99283633    -0.03000
Br1411     Br  0.99224013  0.38842243  0.97862081    -0.01600
Br1412     Br  0.54292623  0.43050756  0.02867236    -0.01600
Br1413     Br  0.92075818  0.54869190  0.97957541    -0.01600
Br1414     Br  0.97702729  0.59520109  0.02000160    -0.01600
C1415       C  0.53559661  0.50567620  0.23770652    -0.02700
C1416       C  0.56168305  0.52644983  0.22359821     0.07000
C1417       C  0.59059350  0.51549537  0.23750929    -0.02800
C1418       C  0.59322845  0.48548594  0.26531955    -0.02800
C1419       C  0.56709445  0.46488305  0.27949079     0.07100
C1420       C  0.53821632  0.47572133  0.26548544    -0.03000
Br1421     Br  0.00114276  0.45393381  0.28632424    -0.01600
Br1422     Br  0.99570225  0.51830081  0.21795987    -0.01600
Br1423     Br  0.63298742  0.47179842  0.28384552    -0.01600
Br1424     Br  0.62696133  0.53986865  0.21700222    -0.01600
C1425       C  0.90028017  0.03242714  0.24534905    -0.02700
C1426       C  0.92732689  0.02807153  0.26422276     0.07000
C1427       C  0.94979754  0.99824038  0.25332028    -0.02800
C1428       C  0.94406058  0.97028690  0.22645908    -0.02800
C1429       C  0.91547435  0.97118322  0.21015394     0.07100
C1430       C  0.89353045  0.00244615  0.22018913    -0.03000
Br1431     Br  0.85304607  0.00245924  0.20102327    -0.01600
Br1432     Br  0.87345807  0.08120107  0.25250726    -0.01600
Br1433     Br  0.47632743  0.93267373  0.21057796    -0.01600
Br1434     Br  0.49031251  0.00080579  0.27215469    -0.01600
C1435       C  0.49334038  0.78094371  0.09913614    -0.02700
C1436       C  0.97552098  0.79292205  0.12710874     0.07000
C1437       C  0.97636663  0.76575311  0.15650902    -0.02800
C1438       C  0.99392651  0.72655653  0.15732442    -0.02800
C1439       C  0.51230034  0.71559921  0.12965897     0.07100
C1440       C  0.51190852  0.74349437  0.10081368    -0.03000
Br1441     Br  0.53565007  0.72965831  0.06194935    -0.01600
Br1442     Br  0.49114370  0.81349368  0.05671431    -0.01600
Br1443     Br  0.99213969  0.68725581  0.19593470    -0.01600
Br1444     Br  0.95457111  0.78311522  0.19591650    -0.01600
C1445       C  0.97180489  0.02653544  0.01182965    -0.02700
C1446       C  0.95335744  0.99030520  0.00520056     0.07000
C1447       C  0.96254183  0.96237112  0.98007917    -0.02800
C1448       C  0.99252626  0.96389681  0.96768226    -0.02800
C1449       C  0.51230113  0.99691326  0.97568326     0.07100
C1450       C  0.50384639  0.02558550  0.00099790    -0.03000
Br1451     Br  0.53369744  0.06264966  0.02131511    -0.01600
Br1452     Br  0.45975851  0.07464815  0.03795170    -0.01600
Br1453     Br  0.00619307  0.91562822  0.94145404    -0.01600
Br1454     Br  0.93251151  0.92603721  0.95990148    -0.01600
C1455       C  0.89059872  0.83125215  0.99771382    -0.02700
C1456       C  0.87597906  0.83359371  0.02955362     0.07000
C1457       C  0.84421086  0.82650226  0.03025167    -0.02800
C1458       C  0.82655402  0.83113904  0.00052077    -0.02800
C1459       C  0.84092011  0.83812739  0.96866801     0.07100
C1460       C  0.87320331  0.83347109  0.96750057    -0.03000
Br1461     Br  0.89424177  0.83036329  0.92495636    -0.01600
Br1462     Br  0.93402389  0.82065879  0.99466741    -0.01600
Br1463     Br  0.78262437  0.82635296  0.00439238    -0.01600
Br1464     Br  0.82633702  0.80125036  0.07056242    -0.01600
C1465       C  0.87513857  0.33986974  0.02132154    -0.02700
C1466       C  0.84300134  0.34429042  0.02149991     0.07000
C1467       C  0.82739264  0.33891013  0.99059792    -0.02800
C1468       C  0.84363606  0.33707943  0.95974508    -0.02800
C1469       C  0.87599668  0.33892197  0.95901183     0.07100
C1470       C  0.89123844  0.33472662  0.99064331    -0.03000
Br1471     Br  0.93354047  0.31768694  0.99342756    -0.01600
Br1472     Br  0.89774418  0.34362274  0.06268443    -0.01600
Br1473     Br  0.82126032  0.32804769  0.91886226    -0.01600
Br1474     Br  0.78334496  0.33305757  0.99030420    -0.01600
C1475       C  0.75307214  0.53693703  0.02130942    -0.02700
C1476       C  0.77731398  0.50787444  0.01713545     0.07000
C1477       C  0.78003916  0.48554839  0.98724328    -0.02800
C1478       C  0.75554356  0.48544130  0.96465640    -0.02800
C1479       C  0.72937318  0.51095163  0.97064084     0.07100
C1480       C  0.72822083  0.53651640  0.99931075    -0.03000
Br1481     Br  0.69270916  0.57080957  0.00888983    -0.01600
Br1482     Br  0.75289398  0.57325514  0.05975831    -0.01600
Br1483     Br  0.75814920  0.45149046  0.92497861    -0.01600
Br1484     Br  0.81698352  0.45343316  0.97899995    -0.01600
C1485       C  0.92528382  0.54095473  0.10811320    -0.04300
C1486       C  0.95122339  0.51799034  0.12043148     0.07000
C1487       C  0.94854572  0.47304419  0.12923544    -0.02800
C1488       C  0.91982489  0.45263347  0.12836099    -0.02800
C1489       C  0.89422310  0.47551841  0.11508626     0.07100
C1490       C  0.89773702  0.51892202  0.10308824    -0.03000
Br1491     Br  0.86615624  0.54723642  0.07621691    -0.01600
Br1492     Br  0.92648450  0.60311569  0.09892002    -0.01600
Br1493     Br  0.91613892  0.39360917  0.14633120    -0.01600
Br1494     Br  0.98410727  0.43718286  0.13946453    -0.01600
C1495       C  0.67317799  0.43582768  0.12382812    -0.02700
C1496       C  0.69902623  0.46338712  0.12336011     0.07000
C1497       C  0.69415812  0.50857882  0.12589483    -0.02800
C1498       C  0.66543557  0.52650832  0.11898905    -0.02800
C1499       C  0.63953193  0.49944758  0.11708451     0.07100
C1500       C  0.64343064  0.45381181  0.12062805    -0.03000
Br1501     Br  0.60839711  0.41569302  0.12244020    -0.01600
Br1502     Br  0.67760991  0.37491226  0.13546590    -0.01600
Br1503     Br  0.66308926  0.58856609  0.10976877    -0.01600
Br1504     Br  0.72488971  0.54614371  0.14448785    -0.01600
C1505       C  0.82250458  0.02640801  0.11900835    -0.02700
C1506       C  0.82513572  0.98155997  0.11293886     0.07000
C1507       C  0.79869526  0.95543079  0.11408624    -0.02800
C1508       C  0.76991086  0.97357808  0.12105783    -0.02800
C1509       C  0.76711808  0.01878438  0.12560362     0.07100
C1510       C  0.79365527  0.04484115  0.12537414    -0.03000
Br1511     Br  0.79068784  0.10585937  0.13511417    -0.01600
Br1512     Br  0.85838883  0.06287645  0.12014361    -0.01600
Br1513     Br  0.73446285  0.93593365  0.12259060    -0.01600
Br1514     Br  0.80121937  0.89524211  0.10316324    -0.01600
C1515       C  0.52055165  0.03032388  0.11734224    -0.02700
C1516       C  0.51573711  0.98653908  0.10942749     0.07000
C1517       C  0.54142943  0.95934716  0.10409272    -0.02800
C1518       C  0.57135065  0.97618614  0.10461388    -0.02800
C1519       C  0.57622174  0.02024802  0.11178263     0.07100
C1520       C  0.55049863  0.04688847  0.11905433    -0.03000
Br1521     Br  0.55513442  0.10679774  0.13149164    -0.01600
Br1522     Br  0.48630212  0.06890122  0.12494477    -0.01600
Br1523     Br  0.60551150  0.93714004  0.09800128    -0.01600
Br1524     Br  0.53642964  0.89762210  0.09887524    -0.01600
C1525       C  0.73355341  0.22552633  0.16692296    -0.02700
C1526       C  0.70825289  0.21945175  0.14559570     0.07000
C1527       C  0.70110138  0.25215994  0.12136509    -0.02800
C1528       C  0.72235556  0.28513789  0.11344541    -0.02800
C1529       C  0.74872948  0.29075161  0.13406416     0.07100
C1530       C  0.75277036  0.26221976  0.16238137    -0.03000
Br1531     Br  0.78572136  0.27055450  0.19372875    -0.01600
Br1532     Br  0.74182181  0.18347508  0.20252160    -0.01600
Br1533     Br  0.71480361  0.31929243  0.07221992    -0.01600
Br1534     Br  0.66246804  0.25133249  0.09780529    -0.01600
C1535       C  0.58281501  0.15948381  0.99485396    -0.02700
C1536       C  0.60046430  0.14693555  0.96637611     0.07000
C1537       C  0.63279663  0.14713105  0.97073972    -0.02800
C1538       C  0.64631093  0.15403457  0.00282336    -0.02800
C1539       C  0.62804786  0.15634117  0.03238508     0.07100
C1540       C  0.59628687  0.16240603  0.02731988    -0.03000
Br1541     Br  0.57145836  0.18044077  0.06441619    -0.01600
Br1542     Br  0.54028149  0.17675452  0.99043922    -0.01600
Br1543     Br  0.68982027  0.16479975  0.00471479    -0.01600
Br1544     Br  0.65956612  0.14049229  0.93282584    -0.01600
C1545       C  0.71330670  0.98554367  0.97028531    -0.02700
C1546       C  0.74539750  0.99393404  0.96621250     0.07000
C1547       C  0.75917903  0.02530776  0.98625658    -0.02800
C1548       C  0.74193713  0.04498669  0.01138058    -0.02800
C1549       C  0.71177245  0.03089734  0.01835294     0.07100
C1550       C  0.69715713  0.00259226  0.99719182    -0.03000
Br1551     Br  0.65435347  0.98903620  0.00468775    -0.01600
Br1552     Br  0.68936925  0.95293104  0.93911074    -0.01600
Br1553     Br  0.76012317  0.09132798  0.03591649    -0.01600
Br1554     Br  0.80166933  0.04105628  0.98098900    -0.01600
C1555       C  0.85624031  0.66557450  0.51638305    -0.02700
C1556       C  0.88708737  0.65259455  0.52072247     0.07000
C1557       C  0.90324839  0.64243905  0.49104964    -0.02800
C1558       C  0.88761713  0.63388154  0.46064438    -0.02800
C1559       C  0.85581494  0.64306070  0.45668961     0.07100
C1560       C  0.84113491  0.66252885  0.48468490    -0.03000
Br1561     Br  0.80076979  0.68787045  0.48038500    -0.01600
Br1562     Br  0.83604013  0.69367788  0.55286608    -0.01600
Br1563     Br  0.91108521  0.60720054  0.42589662    -0.01600
Br1564     Br  0.94721425  0.64587972  0.48965212    -0.01600
C1565       C  0.76976108  0.45747174  0.48919187    -0.02700
C1566       C  0.77200565  0.50174801  0.48004542     0.07000
C1567       C  0.74825658  0.53076950  0.48867398    -0.02800
C1568       C  0.72111334  0.51461496  0.50276308    -0.02800
C1569       C  0.71851862  0.47017267  0.51164543     0.07100
C1570       C  0.74304547  0.44143114  0.50455116    -0.03000
Br1571     Br  0.74142487  0.37992553  0.51532334    -0.01600
Br1572     Br  0.80368329  0.41888875  0.48007272    -0.01600
Br1573     Br  0.68684622  0.55351026  0.50936437    -0.01600
Br1574     Br  0.75165498  0.59293120  0.48126002    -0.01600
C1575       C  0.90225254  0.45401361  0.38258278    -0.02700
C1576       C  0.89793354  0.49823371  0.37224189     0.07000
C1577       C  0.92360205  0.52303658  0.36117494    -0.02800
C1578       C  0.95325788  0.50567792  0.36443954    -0.02800
C1579       C  0.95760716  0.46180424  0.37531268     0.07100
C1580       C  0.93178770  0.43583792  0.38358033    -0.03000
Br1581     Br  0.93589282  0.37474441  0.39654922    -0.01600
Br1582     Br  0.86804609  0.41614970  0.39410253    -0.01600
Br1583     Br  0.98757692  0.54484109  0.35751344    -0.01600
Br1584     Br  0.91965164  0.58139639  0.34145259    -0.01600
C1585       C  0.68439568  0.52889535  0.36984261    -0.02700
C1586       C  0.70773020  0.50238001  0.38404787     0.07000
C1587       C  0.70001000  0.46469388  0.40303336    -0.02800
C1588       C  0.66925498  0.45470184  0.40917099    -0.02800
C1589       C  0.64595512  0.47897521  0.39313028     0.07100
C1590       C  0.65346726  0.51684943  0.37397323    -0.03000
Br1591     Br  0.62148239  0.55232773  0.35391009    -0.01600
Br1592     Br  0.69496608  0.58015810  0.34324778    -0.01600
Br1593     Br  0.65877302  0.41045548  0.44212487    -0.01600
Br1594     Br  0.73142869  0.42512180  0.41890058    -0.01600
C1595       C  0.83589907  0.50717371  0.25623727    -0.02700
C1596       C  0.80839117  0.51756315  0.27285603     0.07000
C1597       C  0.78091884  0.49918259  0.26141236    -0.02800
C1598       C  0.78098744  0.47074845  0.23416902    -0.02800
C1599       C  0.80841401  0.46123712  0.21686263     0.07100
C1600       C  0.83594829  0.47967911  0.22835789    -0.03000
Br1601     Br  0.87390940  0.46861994  0.20561055    -0.01600
Br1602     Br  0.87382414  0.53073012  0.27209219    -0.01600
Br1603     Br  0.74340271  0.44293225  0.22132489    -0.01600
Br1604     Br  0.74291966  0.51326500  0.28309861    -0.01600
C1605       C  0.80413238  0.95292650  0.34575636    -0.02700
C1606       C  0.79424736  0.93581173  0.37687523     0.07000
C1607       C  0.81311910  0.93847418  0.40537687    -0.02800
C1608       C  0.84074013  0.96180070  0.40326875    -0.02800
C1609       C  0.84945685  0.98261270  0.37251247     0.07100
C1610       C  0.83161952  0.97621903  0.34352998    -0.03000
Br1611     Br  0.84486499  0.99731998  0.30027605    -0.01600
Br1612     Br  0.77938174  0.94444698  0.30634195    -0.01600
Br1613     Br  0.86533381  0.96713153  0.44322489    -0.01600
Br1614     Br  0.80030898  0.91218244  0.44775599    -0.01600
C1615       C  0.57523545  0.95686600  0.36352565    -0.02700
C1616       C  0.59872922  0.97977874  0.37959155     0.07000
C1617       C  0.59233527  0.02066972  0.39275852    -0.02800
C1618       C  0.56226700  0.03753366  0.39163953    -0.02800
C1619       C  0.53835323  0.01420726  0.37604295     0.07100
C1620       C  0.54528012  0.97360661  0.36198765    -0.03000
Br1621     Br  0.51381435  0.93739070  0.34336898    -0.01600
Br1622     Br  0.58391888  0.90238245  0.34240133    -0.01600
Br1623     Br  0.55472564  0.09225626  0.41281326    -0.01600
Br1624     Br  0.62457941  0.05293361  0.41372136    -0.01600
C1625       C  0.64988124  0.96130382  0.25975217    -0.02700
C1626       C  0.67259118  0.97301257  0.28317003     0.07000
C1627       C  0.68793690  0.01369004  0.27695045    -0.02800
C1628       C  0.68284025  0.03876541  0.24684569    -0.02800
C1629       C  0.66032356  0.02675985  0.22372641     0.07100
C1630       C  0.64284339  0.98894375  0.23153142    -0.03000
Br1631     Br  0.60790363  0.97548955  0.20400938    -0.01600
Br1632     Br  0.62904296  0.90619986  0.26424993    -0.01600
Br1633     Br  0.70832356  0.08832755  0.23641109    -0.01600
Br1634     Br  0.71514886  0.03846720  0.30960713    -0.01600
C1635       C  0.70549446  0.73290674  0.37677654    -0.02700
C1636       C  0.71572369  0.76926662  0.35787271     0.07000
C1637       C  0.74166366  0.76524826  0.33714137    -0.02800
C1638       C  0.75819886  0.72546958  0.33672984    -0.02800
C1639       C  0.75050197  0.69065565  0.35944825     0.07100
C1640       C  0.72333539  0.69487990  0.37929306    -0.03000
Br1641     Br  0.71068853  0.65247905  0.41381887    -0.01600
Br1642     Br  0.66744801  0.73695914  0.40154547    -0.01600
Br1643     Br  0.79088309  0.71927453  0.30469003    -0.01600
Br1644     Br  0.75570578  0.81535365  0.31129580    -0.01600
C1645       C  0.65588659  0.83274263  0.50696201    -0.02700
C1646       C  0.64127355  0.83678730  0.47523096     0.07000
C1647       C  0.60901800  0.83520633  0.47469857    -0.02800
C1648       C  0.59195139  0.83738696  0.50506701    -0.02800
C1649       C  0.60695979  0.84328979  0.53654496     0.07100
C1650       C  0.63925802  0.83786340  0.53713628    -0.03000
Br1651     Br  0.66174958  0.83655282  0.57890430    -0.01600
Br1652     Br  0.69894118  0.81763034  0.50922909    -0.01600
Br1653     Br  0.54794056  0.83229322  0.50193434    -0.01600
Br1654     Br  0.58787885  0.83013507  0.43246290    -0.01600
C1655       C  0.75400324  0.01736926  0.46495470    -0.02700
C1656       C  0.72903110  0.99051449  0.47376489     0.07000
C1657       C  0.72721507  0.97122569  0.50618749    -0.02800
C1658       C  0.75126801  0.97602598  0.52883575    -0.02800
C1659       C  0.77540777  0.00440783  0.52061307     0.07100
C1660       C  0.77737512  0.02363239  0.48827665    -0.03000
Br1661     Br  0.81263230  0.05793283  0.47648928    -0.01600
Br1662     Br  0.75666753  0.04448316  0.42067377    -0.01600
Br1663     Br  0.75110291  0.94450399  0.57152106    -0.01600
Br1664     Br  0.69145420  0.93846061  0.51928416    -0.01600
loop_ 
_geom_bond_atom_site_label_1 
_geom_bond_atom_site_label_2 
_geom_bond_distance 
_geom_bond_site_symmetry_2 
_ccdc_geom_bond_type 
O1          Cr19   2.067       .  S
O1            C9   1.281       .  A
O2          Cr19   1.962       .  S
O2            C3   1.255       .  A
C3            O4   1.268       .  A
C3          C784   1.481       .  S
O4          Cr20   2.026       .  S
O5          Cr20   1.985       .  S
O5            C6   1.260       .  A
C6            O7   1.253       .  A
C6          C824   1.447       .  S
O7          Cr21   1.950       .  S
O8          Cr21   1.953       .  S
O8            C9   1.255       .  A
C9          C814   1.512       .  S
O10         Cr19   2.014       .  S
O10          C18   1.266       .  A
O11         Cr19   2.071       .  S
O11          C12   1.278       .  A
C12          O13   1.251       .  A
C12         C794   1.526       .  S
O13         Cr20   1.963       .  S
O14         Cr20   1.999       .  S
O14          C15   1.267       .  A
C15          O16   1.263       .  A
C15         C774   1.463       .  S
O16         Cr21   1.975       .  S
O17         Cr21   1.979       .  S
O17          C18   1.259       .  A
C18         C804   1.480       .  S
Cr19         O22   1.765       .  S
Cr20         O22   1.767       .  S
Cr21         O22   1.764       .  S
O23         Cr41   2.045       .  S
O23          C31   1.271       .  A
O24         Cr41   2.004       .  S
O24          C25   1.264       .  A
C25          O26   1.260       .  A
C25         C744   1.487       .  S
O26         Cr42   1.970       .  S
O27         Cr42   1.997       .  S
O27          C28   1.261       .  A
C28          O29   1.244       .  A
C28         C734   1.464       .  S
O29         Cr43   1.958       .  S
O30         Cr43   2.009       .  S
O30          C31   1.262       .  A
C31         C727   1.548       .  S
O32         Cr41   2.069       .  S
O32          C40   1.277       .  A
O33         Cr41   2.042       .  S
O33          C34   1.282       .  A
C34          O35   1.263       .  A
C34         C764   1.498       .  S
O35         Cr42   1.989       .  S
O36         Cr42   1.990       .  S
O36          C37   1.264       .  A
C37          O38   1.263       .  A
C37         C754   1.469       .  S
O38         Cr43   2.002       .  S
O39         Cr43   1.941       .  S
O39          C40   1.244       .  A
C40         C807   1.507       .  S
Cr41         O44   1.763       .  S
Cr42         O44   1.764       .  S
Cr43         O44   1.747       .  S
O45         Cr63   2.036       .  S
O45          C53   1.274       .  A
O46         Cr63   1.988       .  S
O46          C47   1.257       .  A
C47          O48   1.267       .  A
C47         C687   1.492       .  S
O48         Cr64   2.006       .  S
O49         Cr64   2.006       .  S
O49          C50   1.261       .  A
C50          O51   1.242       .  A
C50         C717   1.458       .  S
O51         Cr65   1.939       .  S
O52         Cr65   2.012       .  S
O52          C53   1.269       .  A
C53         C707   1.536       .  S
O54         Cr63   2.038       .  S
O54          C62   1.268       .  A
O55         Cr63   2.039       .  S
O55          C56   1.285       .  A
C56          O57   1.267       .  A
C56         C797   1.510       .  S
O57         Cr64   1.995       .  S
O58         Cr64   1.981       .  S
O58          C59   1.262       .  A
C59          O60   1.262       .  A
C59         C677   1.477       .  S
O60         Cr65   1.987       .  S
O61         Cr65   1.971       .  S
O61          C62   1.251       .  A
C62         C694   1.489       .  S
Cr63         O66   1.767       .  S
Cr64         O66   1.768       .  S
Cr65         O66   1.764       .  S
O67         Cr85   2.090       .  S
O67          C75   1.291       .  A
O68         Cr85   1.978       .  S
O68          C69   1.259       .  A
C69          O70   1.262       .  A
C69         C657   1.480       .  S
O70         Cr86   1.989       .  S
O71         Cr86   1.981       .  S
O71          C72   1.255       .  A
C72          O73   1.255       .  A
C72         C644   1.438       .  S
O73         Cr87   1.952       .  S
O74         Cr87   1.956       .  S
O74          C75   1.259       .  A
C75         C634   1.517       .  S
O76         Cr85   2.036       .  S
O76          C84   1.265       .  A
O77         Cr85   2.077       .  S
O77          C78   1.283       .  A
C78          O79   1.253       .  A
C78         C767   1.505       .  S
O79         Cr86   1.948       .  S
O80         Cr86   1.993       .  S
O80          C81   1.268       .  A
C81          O82   1.269       .  A
C81         C664   1.495       .  S
O82         Cr87   2.002       .  S
O83         Cr87   1.968       .  S
O83          C84   1.244       .  A
C84         C697   1.502       .  S
Cr85         O88   1.757       .  S
Cr86         O88   1.757       .  S
Cr87         O88   1.759       .  S
O89        Cr107   2.009       .  S
O89          C97   1.262       .  A
O90        Cr107   1.970       .  S
O90          C91   1.257       .  A
C91          O92   1.256       .  A
C91         C614   1.481       .  S
O92        Cr108   1.979       .  S
O93        Cr108   1.979       .  S
O93          C94   1.265       .  A
C94          O95   1.270       .  A
C94         C674   1.482       .  S
O95        Cr109   2.016       .  S
O96        Cr109   2.028       .  S
O96          C97   1.272       .  A
C97         C624   1.523       .  S
O98        Cr107   1.966       .  S
O98         C106   1.252       .  A
O99        Cr939   2.000       .  S
O99         C100   1.263       .  A
C100        O101   1.267       .  A
C100        C684   1.489   1_655  S
O101       Cr940   1.997       .  S
O102       Cr108   1.971       .  S
O102        C103   1.255       .  A
C103        O104   1.281       .  A
C103        C597   1.498       .  S
O104       Cr109   2.048       .  S
O105       Cr109   2.061       .  S
O105        C106   1.274       .  A
C106        C604   1.505       .  S
Cr107       O931   2.000       .  S
Cr107       O110   1.764       .  S
Cr108       O933   1.996       .  S
Cr108       O110   1.768       .  S
Cr109       O110   1.770       .  S
O111       Cr129   2.021       .  S
O111        C119   1.268       .  A
O112       Cr129   1.941       .  S
O112        C113   1.244       .  A
C113        O114   1.256       .  A
C113        C574   1.455       .  S
O114       Cr130   1.988       .  S
O115       Cr130   1.984       .  S
O115        C116   1.266       .  A
C116        O117   1.266       .  A
C116        C667   1.481       .  S
O117       Cr131   1.993       .  S
O118       Cr131   2.031       .  S
O118        C119   1.268       .  A
C119        C564   1.525       .  S
O120       Cr961   1.966       .  S
O120        C960   1.252       .  A
O121       Cr961   2.008       .  S
O121        C122   1.266       .  A
C122        O123   1.260       .  A
C122        C654   1.481       .  S
O123       Cr962   1.971       .  S
O124       Cr130   1.975       .  S
O124        C125   1.256       .  A
C125        O126   1.283       .  A
C125        C584   1.500       .  S
O126       Cr131   2.050       .  S
O127       Cr131   2.061       .  S
O127        C128   1.276       .  A
C128        O952   1.252       .  A
C128        C607   1.500       .  S
Cr129       O952   1.966       .  S
Cr129       O953   2.008   1_455  S
Cr129       O132   1.777       .  S
Cr130       O955   1.970       .  S
Cr130       O132   1.776       .  S
Cr131       O132   1.769       .  S
O133       Cr151   2.002       .  S
O133        C141   1.255       .  A
O134       Cr151   1.971       .  S
O134        C135   1.261       .  A
C135        O136   1.255   1_545  A
C135        C547   1.469   1_545  S
O136       Cr152   1.968   1_565  S
O137       Cr152   1.961   1_565  S
O137        C138   1.258   1_565  A
C138        O139   1.273       .  A
C138        C777   1.484   1_545  S
O139       Cr153   2.027       .  S
O140       Cr153   2.056       .  S
O140        C141   1.271       .  A
C141        C554   1.543       .  S
O142       Cr151   1.957       .  S
O142        C150   1.260       .  A
O143       Cr983   2.005       .  S
O143        C144   1.261   1_655  A
C144        O145   1.262   1_455  A
C144        C787   1.493       .  S
O145       Cr984   1.990       .  S
O146       Cr152   1.963       .  S
O146        C147   1.254       .  A
C147        O148   1.276       .  A
C147        C594   1.502       .  S
O148       Cr153   2.045       .  S
O149       Cr153   2.067       .  S
O149        C150   1.284       .  A
C150        C534   1.515       .  S
Cr151       O975   2.005       .  S
Cr151       O154   1.777       .  S
Cr152       O977   1.991       .  S
Cr152       O154   1.774       .  S
Cr153       O154   1.772       .  S
O155       Cr173   2.008       .  S
O155        C163   1.262       .  A
O156       Cr173   1.959       .  S
O156        C157   1.250       .  A
C157        O158   1.258       .  A
C157        C517   1.452       .  S
O158       Cr174   1.977       .  S
O159       Cr174   1.984       .  S
O159        C160   1.264       .  A
C160        O161   1.268       .  A
C160        C757   1.473       .  S
O161       Cr175   2.007       .  S
O162       Cr175   2.043       .  S
O162        C163   1.273       .  A
C163        C524   1.536       .  S
O164      Cr1005   1.968       .  S
O164       C1004   1.256       .  A
O165      Cr1005   1.997       .  S
O165        C166   1.262       .  A
C166        O167   1.260       .  A
C166        C747   1.482       .  S
O167      Cr1006   1.974       .  S
O168       Cr174   1.983       .  S
O168        C169   1.256       .  A
C169        O170   1.281       .  A
C169        C587   1.504       .  S
O170       Cr175   2.056       .  S
O171       Cr175   2.053       .  S
O171        C172   1.275       .  A
C172        O996   1.256       .  A
C172        C537   1.511       .  S
Cr173       O996   1.965       .  S
Cr173       O997   1.998   1_455  S
Cr173       O176   1.779       .  S
Cr174       O999   1.974       .  S
Cr174       O176   1.773       .  S
Cr175       O176   1.761       .  S
O177       Cr195   1.955       .  S
O177        C185   1.254       .  A
O178       Cr195   1.958       .  S
O178        C179   1.257       .  A
C179        O180   1.260       .  A
C179        C827   1.444       .  S
O180       Cr196   1.980       .  S
O181       Cr196   2.001       .  S
O181        C182   1.260       .  A
C182        O183   1.255       .  A
C182        C477   1.478       .  S
O183       Cr197   1.972       .  S
O184       Cr197   2.084       .  S
O184        C185   1.288       .  A
C185        C557   1.533       .  S
O186       Cr195   1.994       .  S
O186        C194   1.260       .  A
O187       Cr195   1.977       .  S
O187        C188   1.262       .  A
C188        O189   1.261       .  A
C188        C484   1.479       .  S
O189       Cr196   1.987       .  S
O190       Cr196   1.954       .  S
O190        C191   1.254       .  A
C191        O192   1.284       .  A
C191        C497   1.510       .  S
O192       Cr197   2.083       .  S
O193       Cr197   2.022       .  S
O193        C194   1.265       .  A
C194        C507   1.496       .  S
Cr195       O198   1.772       .  S
Cr196       O198   1.768       .  S
Cr197       O198   1.771       .  S
O199       Cr217   2.011       .  S
O199        C207   1.262       .  A
O200       Cr217   1.959       .  S
O200        C201   1.250       .  A
C201        O202   1.262       .  A
C201        C737   1.469       .  S
O202       Cr218   1.990       .  S
O203       Cr218   1.984       .  S
O203        C204   1.263       .  A
C204        O205   1.265       .  A
C204        C454   1.472       .  S
O205       Cr219   2.002       .  S
O206       Cr219   2.041       .  S
O206        C207   1.272       .  A
C207        C527   1.538       .  S
O208       Cr217   1.958       .  S
O208        C216   1.255       .  A
O209       Cr217   2.007       .  S
O209        C210   1.261       .  A
C210        O211   1.261       .  A
C210        C444   1.489       .  S
O211       Cr218   1.983       .  S
O212       Cr218   1.985       .  S
O212        C213   1.260       .  A
C213        O214   1.277       .  A
C213        C464   1.498       .  S
O214       Cr219   2.036       .  S
O215       Cr219   2.042       .  S
O215        C216   1.274       .  A
C216        C504   1.500       .  S
Cr217       O220   1.776       .  S
Cr218       O220   1.776       .  S
Cr219       O220   1.767       .  S
O221       Cr239   1.967       .  S
O221        C229   1.268       .  A
O222       Cr239   1.937       .  S
O222        C223   1.240       .  A
C223        O224   1.262       .  A
C223        C714   1.489       .  S
O224       Cr240   2.005       .  S
O225       Cr240   2.002       .  S
O225        C226   1.269       .  A
C226        O227   1.261       .  A
C226        C414   1.501       .  S
O227       Cr241   1.977       .  S
O228       Cr241   2.082       .  S
O228        C229   1.293       .  A
C229        C627   1.519       .  S
O230       Cr239   1.964       .  S
O230        C238   1.235       .  A
O231       Cr239   2.012       .  S
O231        C232   1.278       .  A
C232        O233   1.274       .  A
C232        C424   1.491       .  S
O233       Cr240   1.988       .  S
O234       Cr240   1.957       .  S
O234        C235   1.254       .  A
C235        O236   1.277       .  A
C235        C494   1.512       .  S
O236       Cr241   2.050       .  S
O237       Cr241   2.054       .  S
O237        C238   1.261       .  A
C238        C434   1.500       .  S
Cr239       O242   1.770       .  S
Cr240       O242   1.766       .  S
Cr241       O242   1.767       .  S
O243       Cr261   1.977       .  S
O243        C251   1.269       .  A
O244       Cr261   1.929       .  S
O244        C245   1.237       .  A
C245        O246   1.256       .  A
C245        C647   1.447       .  S
O246       Cr262   2.008       .  S
O247       Cr262   1.991       .  S
O247        C248   1.262       .  A
C248        O249   1.255       .  A
C248        C404   1.487       .  S
O249       Cr263   1.961       .  S
O250       Cr263   2.097       .  S
O250        C251   1.297       .  A
C251        C567   1.524       .  S
O252       Cr261   1.956       .  S
O252        C260   1.241       .  A
O253       Cr261   2.002       .  S
O253        C254   1.279       .  A
C254        O255   1.276       .  A
C254        C394   1.498       .  S
O255       Cr262   2.003       .  S
O256       Cr262   1.975       .  S
O256        C257   1.261       .  A
C257        O258   1.275       .  A
C257        C467   1.495       .  S
O258       Cr263   2.034       .  S
O259       Cr263   2.026       .  S
O259        C260   1.252       .  A
C260        C437   1.481       .  S
Cr261       O264   1.781       .  S
Cr262       O264   1.775       .  S
Cr263       O264   1.775       .  S
O265       Cr283   2.022       .  S
O265        C273   1.268       .  A
O266       Cr283   2.013       .  S
O266        C267   1.270       .  A
C267        O268   1.259       .  A
C267        C487   1.501       .  S
O268       Cr284   1.975       .  S
O269       Cr284   1.979       .  S
O269        C270   1.251       .  A
C270        O271   1.253       .  A
C270        C544   1.469       .  S
O271       Cr285   1.959       .  S
O272       Cr285   2.006       .  S
O272        C273   1.262       .  A
C273        C817   1.526       .  S
O274       Cr283   2.053       .  S
O274        C282   1.277       .  A
O275       Cr283   2.041       .  S
O275        C276   1.278       .  A
C276        O277   1.256       .  A
C276        C374   1.490       .  S
O277       Cr284   1.974       .  S
O278      Cr1116   1.982       .  S
O278        C279   1.264       .  A
C279        O280   1.267       .  A
C279        C474   1.493       .  S
O280      Cr1117   2.006       .  S
O281      Cr1117   1.965       .  S
O281       C1114   1.256       .  A
C282       O1113   1.256       .  A
C282        C384   1.502       .  S
Cr283       O286   1.759       .  S
Cr284      O1110   1.982       .  S
Cr284       O286   1.770       .  S
Cr285      O1112   2.006   1_455  S
Cr285      O1113   1.966       .  S
Cr285       O286   1.762       .  S
O287       Cr305   2.040       .  S
O287        C295   1.272       .  A
O288       Cr305   2.016       .  S
O288        C289   1.268       .  A
C289        O290   1.261       .  A
C289        C447   1.490       .  S
O290       Cr306   1.979       .  S
O291       Cr306   1.973       .  S
O291        C292   1.255       .  A
C292        O293   1.247       .  A
C292        C514   1.455       .  S
O293       Cr307   1.956       .  S
O294       Cr307   2.020       .  S
O294        C295   1.268       .  A
C295        C724   1.540       .  S
O296       Cr305   2.078       .  S
O296        C304   1.277       .  A
O297       Cr305   2.053       .  S
O297        C298   1.285       .  A
C298        O299   1.260       .  A
C298        C364   1.501       .  S
O299       Cr306   1.979       .  S
O300      Cr1138   1.994       .  S
O300        C301   1.266       .  A
C301        O302   1.262       .  A
C301        C457   1.471   1_655  S
O302      Cr1139   1.995       .  S
O303       Cr307   1.954       .  S
O303        C304   1.244       .  A
C304        C387   1.523       .  S
Cr305       O308   1.769       .  S
Cr306      O1132   1.994       .  S
Cr306       O308   1.766       .  S
Cr307      O1134   1.997       .  S
Cr307       O308   1.757       .  S
O309       Cr327   2.058       .  S
O309        C317   1.275       .  A
O310       Cr327   1.981       .  S
O310        C311   1.259       .  A
C311        O312   1.264       .  A
C311        C427   1.488   1_545  S
O312       Cr328   1.990       .  S
O313       Cr328   1.980   1_565  S
O313        C314   1.253   1_565  A
C314        O315   1.252       .  A
C314        C617   1.485   1_545  S
O315       Cr329   1.963       .  S
O316       Cr329   1.999       .  S
O316        C317   1.260       .  A
C317        C704   1.548       .  S
O318       Cr327   2.026       .  S
O318        C326   1.271       .  A
O319       Cr327   2.044       .  S
O319        C320   1.281       .  A
C320        O321   1.256       .  A
C320        C377   1.491       .  S
O321       Cr328   1.969       .  S
O322      Cr1160   2.002       .  S
O322        C323   1.267       .  A
C323        O324   1.261       .  A
C323        C417   1.503       .  S
O324      Cr1161   1.994       .  S
O325      Cr1161   1.984       .  S
O325       C1158   1.260       .  A
C326       O1157   1.260       .  A
C326        C354   1.497       .  S
Cr327       O330   1.767       .  S
Cr328      O1154   1.999       .  S
Cr328       O330   1.780       .  S
Cr329      O1156   1.996   1_455  S
Cr329      O1157   1.985       .  S
Cr329       O330   1.771       .  S
O331       Cr349   2.030       .  S
O331        C339   1.271       .  A
O332       Cr349   2.007       .  S
O332        C333   1.265       .  A
C333        O334   1.263       .  A
C333        C397   1.500       .  S
O334       Cr350   1.991       .  S
O335       Cr350   1.996       .  S
O335        C336   1.262       .  A
C336        O337   1.247       .  A
C336        C577   1.462       .  S
O337       Cr351   1.953       .  S
O338       Cr351   2.018       .  S
O338        C339   1.265       .  A
C339        C637   1.532       .  S
O340       Cr349   2.078       .  S
O340        C348   1.277       .  A
O341       Cr349   2.038       .  S
O341        C342   1.284       .  A
C342        O343   1.264       .  A
C342        C367   1.496       .  S
O343       Cr350   1.988       .  S
O344      Cr1182   1.979       .  S
O344        C345   1.260       .  A
C345        O346   1.262       .  A
C345        C407   1.471   1_655  S
O346      Cr1183   2.005       .  S
O347       Cr351   1.954       .  S
O347        C348   1.246       .  A
C348        C357   1.518       .  S
Cr349       O352   1.766       .  S
Cr350      O1176   1.979       .  S
Cr350       O352   1.770       .  S
Cr351      O1178   2.005       .  S
Cr351       O352   1.760       .  S
C353        C354   1.405       .  A
C353        C358   1.407       .  A
C353       Br360   1.939       .  S
C354       C1187   1.415   1_455  A
C355        C356   1.424       .  A
C355       C1186   1.415       .  A
C355       Br362   1.929       .  S
C356        C357   1.421       .  A
C356       Br361   1.928       .  S
C357       C1190   1.431       .  A
C358       C1189   1.432   1_455  A
C358       Br359   1.938       .  S
C363        C364   1.413       .  A
C363        C368   1.421       .  A
C363       Br370   1.921       .  S
C364        C365   1.418       .  A
C365        C366   1.417       .  A
C365       Br372   1.931       .  S
C366        C367   1.410       .  A
C366       Br371   1.927       .  S
C367        C368   1.415       .  A
C368       Br369   1.929       .  S
C373        C374   1.411       .  A
C373        C378   1.418   1_565  A
C373      Br1212   1.928       .  S
C374        C375   1.414       .  A
C375        C376   1.415   1_565  A
C375       Br382   1.928       .  S
C376        C377   1.412       .  A
C376       Br381   1.927       .  S
C377        C378   1.414       .  A
C378      Br1211   1.926   1_455  S
Br379      C1210   1.926       .  S
Br380      C1205   1.928       .  S
C383        C388   1.422       .  A
C383       C1216   1.415       .  A
C383       Br390   1.931       .  S
C384        C385   1.409       .  A
C384       C1215   1.414   1_455  A
C385        C386   1.415       .  A
C385       Br392   1.937       .  S
C386       C1219   1.435   1_455  A
C386       Br391   1.943       .  S
C387        C388   1.421       .  A
C387       C1218   1.436       .  A
C388       Br389   1.929       .  S
C393        C394   1.415       .  A
C393        C398   1.404       .  A
C393       Br400   1.938       .  S
C394        C395   1.416       .  A
C395        C396   1.418       .  A
C395       Br402   1.932       .  S
C396        C397   1.422       .  A
C396       Br401   1.934       .  S
C397        C398   1.418       .  A
C398       Br399   1.938       .  S
C403        C404   1.419       .  A
C403        C408   1.409       .  A
C403       Br410   1.935       .  S
C404        C405   1.420       .  A
C405        C406   1.404       .  A
C405       Br412   1.936       .  S
C406        C407   1.405       .  A
C406       Br411   1.932   1_455  S
C407        C408   1.406       .  A
C408       Br409   1.928       .  S
C413        C414   1.413   1_545  A
C413        C418   1.410       .  A
C413       Br420   1.934       .  S
C414        C415   1.423       .  A
C415        C416   1.413       .  A
C415       Br422   1.939       .  S
C416        C417   1.418   1_565  A
C416       Br421   1.937       .  S
C417        C418   1.425       .  A
C418       Br419   1.941       .  S
C423        C424   1.404       .  A
C423        C428   1.412       .  A
C423       Br430   1.916       .  S
C424        C425   1.407   1_565  A
C425        C426   1.399       .  A
C425       Br432   1.938       .  S
C426        C427   1.422   1_545  A
C426       Br431   1.935       .  S
C427        C428   1.421       .  A
C428       Br429   1.933       .  S
C433        C434   1.428       .  A
C433        C438   1.403       .  A
C433       Br440   1.941       .  S
C434        C435   1.416       .  A
C435        C436   1.421       .  A
C435       Br442   1.926       .  S
C436        C437   1.411       .  A
C436       Br441   1.924       .  S
C437        C438   1.397       .  A
C438       Br439   1.931       .  S
C443        C444   1.418       .  A
C443        C448   1.407       .  A
C443       Br450   1.936       .  S
C444        C445   1.416       .  A
C445        C446   1.410       .  A
C445       Br452   1.938       .  S
C446        C447   1.416       .  A
C446       Br451   1.933       .  S
C447        C448   1.416       .  A
C448       Br449   1.938       .  S
C453        C454   1.411       .  A
C453        C458   1.409       .  A
C453       Br460   1.926       .  S
C454        C455   1.402       .  A
C455        C456   1.402       .  A
C455       Br462   1.921       .  S
C456        C457   1.409       .  A
C456       Br461   1.923   1_455  S
C457        C458   1.409       .  A
C458       Br459   1.926       .  S
C463        C464   1.413       .  A
C463        C468   1.419       .  A
C463       Br470   1.929       .  S
C464        C465   1.417       .  A
C465        C466   1.415       .  A
C465       Br472   1.924       .  S
C466        C467   1.407       .  A
C466       Br471   1.930       .  S
C467        C468   1.414       .  A
C468       Br469   1.925       .  S
C473        C474   1.421   1_545  A
C473        C478   1.408       .  A
C473       Br480   1.939       .  S
C474        C475   1.421       .  A
C475        C476   1.406       .  A
C475       Br482   1.937       .  S
C476        C477   1.408   1_565  A
C476       Br481   1.936       .  S
C477        C478   1.413       .  A
C478       Br479   1.937       .  S
C483        C484   1.410       .  A
C483        C488   1.414       .  A
C483       Br490   1.936       .  S
C484        C485   1.406       .  A
C485        C486   1.399   1_545  A
C485       Br492   1.937   1_545  S
C486        C487   1.421       .  A
C486       Br491   1.939       .  S
C487        C488   1.429   1_565  A
C488       Br489   1.937       .  S
C493        C494   1.428   1_545  A
C493        C498   1.420       .  A
C493       Br500   1.935       .  S
C494        C495   1.409       .  A
C495        C496   1.419       .  A
C495       Br502   1.930       .  S
C496        C497   1.427   1_565  A
C496       Br501   1.934       .  S
C497        C498   1.408       .  A
C498       Br499   1.930       .  S
C503        C504   1.417       .  A
C503        C508   1.414       .  A
C503       Br510   1.928       .  S
C504        C505   1.411       .  A
C505        C506   1.413       .  A
C505       Br512   1.931       .  S
C506        C507   1.415       .  A
C506       Br511   1.919       .  S
C507        C508   1.407       .  A
C508       Br509   1.924       .  S
C513        C514   1.405       .  A
C513        C518   1.399       .  A
C513       Br520   1.937       .  S
C514        C515   1.417       .  A
C515       C1348   1.395       .  A
C515       Br522   1.930       .  S
C516        C517   1.398       .  A
C516       C1347   1.395   1_455  A
C516       Br521   1.935       .  S
C517       C1350   1.413   1_455  A
C518       C1349   1.414       .  A
C518       Br519   1.928       .  S
C523        C524   1.430       .  A
C523        C528   1.426       .  A
C523       Br530   1.924       .  S
C524        C525   1.415       .  A
C525        C526   1.428       .  A
C525       Br532   1.934       .  S
C526        C527   1.427       .  A
C526       Br531   1.924       .  S
C527        C528   1.412       .  A
C528       Br529   1.934       .  S
C533        C534   1.416       .  A
C533        C538   1.417       .  A
C533       Br540   1.927       .  S
C534       C1367   1.422       .  A
C535        C536   1.417       .  A
C535       C1366   1.422   1_455  A
C535       Br542   1.931       .  S
C536        C537   1.413       .  A
C536       Br541   1.929       .  S
C537       C1370   1.418   1_455  A
C538       C1369   1.416       .  A
C538       Br539   1.926       .  S
C543        C548   1.398       .  A
C543       C1376   1.421   1_545  A
C543       Br550   1.929       .  S
C544        C545   1.403       .  A
C544       C1375   1.421   1_465  A
C545        C546   1.394   1_455  A
C545       Br552   1.934       .  S
C546       C1379   1.415       .  A
C546       Br551   1.932       .  S
C547        C548   1.399   1_565  A
C547       C1378   1.416       .  A
C548       Br549   1.933       .  S
C553        C554   1.420       .  A
C553        C558   1.427       .  A
C553       Br560   1.932       .  S
C554        C555   1.436       .  A
C555        C556   1.430       .  A
C555       Br562   1.936       .  S
C556        C557   1.414       .  A
C556       Br561   1.929       .  S
C557        C558   1.425       .  A
C558       Br559   1.937       .  S
C563        C564   1.418       .  A
C563        C568   1.435   1_554  A
C563       Br570   1.922       .  S
C564        C565   1.413       .  A
C565        C566   1.414   1_554  A
C565       Br572   1.920       .  S
C566        C567   1.415       .  A
C566       Br571   1.921       .  S
C567        C568   1.421       .  A
C568       Br569   1.921       .  S
C573        C574   1.399       .  A
C573       C1410   1.397   1_454  A
C573       Br580   1.939       .  S
C574       C1407   1.417   1_455  A
C575        C576   1.399   1_554  A
C575       C1406   1.417       .  A
C575       Br582   1.933       .  S
C576        C577   1.403       .  A
C576       Br581   1.935       .  S
C577        C578   1.420       .  A
C578       C1405   1.396   1_556  A
C578       Br579   1.925       .  S
C583        C584   1.416       .  A
C583        C588   1.420       .  A
C583      Br1422   1.929   1_455  S
C584        C585   1.415       .  A
C585        C586   1.422       .  A
C585       Br592   1.929       .  S
C586        C587   1.416       .  A
C586       Br591   1.928       .  S
C587        C588   1.415       .  A
C588      Br1421   1.926       .  S
Br589      C1420   1.926       .  S
Br590      C1415   1.929       .  S
C593        C594   1.405       .  A
C593        C598   1.416       .  A
C593       Br600   1.929       .  S
C594        C595   1.419   1_545  A
C595        C596   1.418       .  A
C595      Br1434   1.922   1_565  S
C596        C597   1.408       .  A
C596      Br1433   1.930       .  S
C597        C598   1.421   1_565  A
C598       Br599   1.928   1_545  S
Br601      C1428   1.930       .  S
Br602      C1427   1.922       .  S
C603        C608   1.407   1_655  A
C603       C1436   1.418       .  A
C603       Br610   1.937       .  S
C604        C605   1.416       .  A
C604       C1435   1.417       .  A
C605        C606   1.427       .  A
C605       Br612   1.926       .  S
C606       C1439   1.417       .  A
C606       Br611   1.925       .  S
C607        C608   1.410       .  A
C607       C1438   1.417   1_455  A
C608       Br609   1.923       .  S
C613        C614   1.412   1_545  A
C613       C1450   1.399       .  A
C613      Br1452   1.931       .  S
C614        C615   1.400   1_554  A
C615        C616   1.402       .  A
C615       Br622   1.925       .  S
C616       C1449   1.425       .  A
C616       Br621   1.937       .  S
C617        C618   1.413   1_566  A
C617       C1448   1.424   1_455  A
C618       C1445   1.400   1_455  A
C618       Br619   1.933       .  S
Br620      C1445   1.931       .  S
C623        C624   1.424   1_556  A
C623        C628   1.423       .  A
C623       Br630   1.929       .  S
C624        C625   1.407       .  A
C625        C626   1.417       .  A
C625       Br632   1.926       .  S
C626        C627   1.425   1_554  A
C626       Br631   1.932       .  S
C627        C628   1.419       .  A
C628       Br629   1.933       .  S
C633        C634   1.411       .  A
C633        C638   1.423   1_554  A
C633       Br640   1.929       .  S
C634        C635   1.423   1_554  A
C635        C636   1.422       .  A
C635       Br642   1.934       .  S
C636        C637   1.416       .  A
C636       Br641   1.929       .  S
C637        C638   1.427       .  A
C638       Br639   1.922       .  S
C643        C644   1.398       .  A
C643        C648   1.397   1_554  A
C643       Br650   1.927       .  S
C644        C645   1.400   1_554  A
C645        C646   1.400       .  A
C645       Br652   1.924       .  S
C646        C647   1.410       .  A
C646       Br651   1.927       .  S
C647        C648   1.410       .  A
C648       Br649   1.918   1_556  S
C653        C654   1.413       .  A
C653        C658   1.402       .  A
C653       Br660   1.935       .  S
C654        C655   1.420       .  A
C655        C656   1.406       .  A
C655       Br662   1.938       .  S
C656        C657   1.413       .  A
C656       Br661   1.936       .  S
C657        C658   1.412       .  A
C658       Br659   1.934       .  S
C663        C664   1.415       .  A
C663        C668   1.415       .  A
C663       Br670   1.924       .  S
C664        C665   1.413       .  A
C665        C666   1.393       .  A
C665       Br672   1.939       .  S
C666        C667   1.412       .  A
C666       Br671   1.934       .  S
C667        C668   1.416       .  A
C668       Br669   1.932       .  S
C673        C674   1.413   1_545  A
C673        C678   1.408       .  A
C673       Br680   1.933       .  S
C674        C675   1.409       .  A
C675        C676   1.406       .  A
C675       Br682   1.918       .  S
C676        C677   1.412   1_565  A
C676       Br681   1.937       .  S
C677        C678   1.412       .  A
C678       Br679   1.933       .  S
C683        C684   1.410   1_545  A
C683        C688   1.409       .  A
C683       Br690   1.936   1_455  S
C684        C685   1.418       .  A
C685        C686   1.409       .  A
C685       Br692   1.929       .  S
C686        C687   1.411   1_565  A
C686       Br691   1.936       .  S
C687        C688   1.423       .  A
C688       Br689   1.934       .  S
C693        C694   1.412       .  A
C693        C698   1.417       .  A
C693       Br700   1.920       .  S
C694        C695   1.405       .  A
C695        C696   1.406       .  A
C695       Br702   1.933       .  S
C696        C697   1.431       .  A
C696       Br701   1.947       .  S
C697        C698   1.416       .  A
C698       Br699   1.930       .  S
C703        C704   1.435       .  A
C703        C708   1.428   1_556  A
C703       Br710   1.937       .  S
C704        C705   1.425       .  A
C705        C706   1.429   1_556  A
C705       Br712   1.925       .  S
C706        C707   1.424       .  A
C706       Br711   1.934       .  S
C707        C708   1.412       .  A
C708       Br709   1.928       .  S
C713        C714   1.435       .  A
C713        C718   1.399   1_565  A
C713       Br720   1.933       .  S
C714        C715   1.410   1_565  A
C715        C716   1.405   1_556  A
C715       Br722   1.931       .  S
C716        C717   1.413       .  A
C716       Br721   1.930       .  S
C717        C718   1.390   1_554  A
C718       Br719   1.939   1_546  S
C723        C724   1.414       .  A
C723        C728   1.432       .  A
C723       Br730   1.928       .  S
C724        C725   1.420       .  A
C725        C726   1.425       .  A
C725       Br732   1.925       .  S
C726        C727   1.425       .  A
C726       Br731   1.927       .  S
C727        C728   1.435       .  A
C728       Br729   1.932       .  S
C733        C734   1.401       .  A
C733        C738   1.402       .  A
C733       Br740   1.937       .  S
C734        C735   1.416       .  A
C735        C736   1.398       .  A
C735       Br742   1.930       .  S
C736        C737   1.404       .  A
C736       Br741   1.936       .  S
C737        C738   1.422       .  A
C738       Br739   1.927       .  S
C743        C744   1.419       .  A
C743        C748   1.404       .  A
C743       Br750   1.943       .  S
C744        C745   1.420       .  A
C745        C746   1.405       .  A
C745       Br752   1.941       .  S
C746        C747   1.415       .  A
C746       Br751   1.941       .  S
C747        C748   1.416       .  A
C748       Br749   1.938       .  S
C753        C754   1.411       .  A
C753        C758   1.411       .  A
C753       Br760   1.926       .  S
C754        C755   1.404       .  A
C755        C756   1.400       .  A
C755       Br762   1.925       .  S
C756        C757   1.401       .  A
C756       Br761   1.914       .  S
C757        C758   1.410       .  A
C758       Br759   1.927       .  S
C763        C764   1.413       .  A
C763        C768   1.420       .  A
C763       Br770   1.928       .  S
C764        C765   1.412       .  A
C765        C766   1.418       .  A
C765       Br772   1.926       .  S
C766        C767   1.417       .  A
C766       Br771   1.933       .  S
C767        C768   1.416       .  A
C768       Br769   1.924       .  S
C773        C774   1.399       .  A
C773        C778   1.403       .  A
C773       Br780   1.933       .  S
C774        C775   1.409       .  A
C775        C776   1.408       .  A
C775       Br782   1.929       .  S
C776        C777   1.414       .  A
C776       Br781   1.933       .  S
C777        C778   1.413       .  A
C778       Br779   1.909       .  S
C783        C784   1.413       .  A
C783        C788   1.405       .  A
C783       Br790   1.937       .  S
C784        C785   1.407   1_565  A
C785        C786   1.411       .  A
C785       Br792   1.933       .  S
C786        C787   1.425       .  A
C786       Br791   1.936       .  S
C787        C788   1.417   1_545  A
C788       Br789   1.937       .  S
C793        C794   1.419       .  A
C793        C798   1.419       .  A
C793       Br800   1.930       .  S
C794        C795   1.436   1_565  A
C795        C796   1.420       .  A
C795       Br802   1.940       .  S
C796        C797   1.407       .  A
C796       Br801   1.925       .  S
C797        C798   1.419   1_545  A
C798       Br799   1.935       .  S
C803        C804   1.401       .  A
C803        C808   1.404       .  A
C803       Br810   1.939       .  S
C804        C805   1.409       .  A
C805        C806   1.419       .  A
C805       Br812   1.926       .  S
C806        C807   1.419       .  A
C806       Br811   1.928       .  S
C807        C808   1.434       .  A
C808       Br809   1.943       .  S
C813        C814   1.418       .  A
C813        C818   1.417       .  A
C813       Br820   1.938       .  S
C814        C815   1.411       .  A
C815        C816   1.423       .  A
C815       Br822   1.931       .  S
C816        C817   1.433       .  A
C816       Br821   1.936       .  S
C817        C818   1.421       .  A
C818       Br819   1.932       .  S
C823        C824   1.408   1_545  A
C823        C828   1.399       .  A
C823       Br830   1.929       .  S
C824        C825   1.405       .  A
C825        C826   1.398       .  A
C825       Br832   1.925       .  S
C826        C827   1.404   1_565  A
C826       Br831   1.928       .  S
C827        C828   1.402       .  A
C828       Br829   1.920       .  S
O833       Cr851   2.068       .  S
O833        C841   1.281       .  A
O834       Cr851   1.962       .  S
O834        C835   1.256       .  A
C835        O836   1.269       .  A
C835       C1616   1.482       .  S
O836       Cr852   2.028       .  S
O837       Cr852   1.986       .  S
O837        C838   1.260       .  A
C838        O839   1.253       .  A
C838       C1656   1.447       .  S
O839       Cr853   1.951       .  S
O840       Cr853   1.954       .  S
O840        C841   1.255       .  A
C841       C1646   1.514       .  S
O842       Cr851   2.016       .  S
O842        C850   1.266       .  A
O843       Cr851   2.072       .  S
O843        C844   1.278       .  A
C844        O845   1.250       .  A
C844       C1626   1.525       .  S
O845       Cr852   1.962       .  S
O846       Cr852   1.998       .  S
O846        C847   1.267       .  A
C847        O848   1.263       .  A
C847       C1606   1.462       .  S
O848       Cr853   1.975       .  S
O849       Cr853   1.979       .  S
O849        C850   1.259       .  A
C850       C1636   1.481       .  S
Cr851       O854   1.765       .  S
Cr852       O854   1.767       .  S
Cr853       O854   1.764       .  S
O855       Cr873   2.042       .  S
O855        C863   1.271       .  A
O856       Cr873   2.006       .  S
O856        C857   1.265       .  A
C857        O858   1.260       .  A
C857       C1576   1.488       .  S
O858       Cr874   1.969       .  S
O859       Cr874   1.995       .  S
O859        C860   1.260       .  A
C860        O861   1.244       .  A
C860       C1566   1.463       .  S
O861       Cr875   1.958       .  S
O862       Cr875   2.010       .  S
O862        C863   1.262       .  A
C863       C1559   1.547       .  S
O864       Cr873   2.070       .  S
O864        C872   1.278       .  A
O865       Cr873   2.040       .  S
O865        C866   1.282       .  A
C866        O867   1.262       .  A
C866       C1596   1.496       .  S
O867       Cr874   1.988       .  S
O868       Cr874   1.990       .  S
O868        C869   1.264       .  A
C869        O870   1.264       .  A
C869       C1586   1.469       .  S
O870       Cr875   2.004       .  S
O871       Cr875   1.940       .  S
O871        C872   1.243       .  A
C872       C1639   1.508       .  S
Cr873       O876   1.762       .  S
Cr874       O876   1.763       .  S
Cr875       O876   1.747       .  S
O877       Cr895   2.034       .  S
O877        C885   1.274       .  A
O878       Cr895   1.985       .  S
O878        C879   1.256       .  A
C879        O880   1.266       .  A
C879       C1519   1.492       .  S
O880       Cr896   2.007       .  S
O881       Cr896   2.008       .  S
O881        C882   1.262       .  A
C882        O883   1.242       .  A
C882       C1549   1.458       .  S
O883       Cr897   1.937       .  S
O884       Cr897   2.015       .  S
O884        C885   1.270       .  A
C885       C1539   1.539       .  S
O886       Cr895   2.037       .  S
O886        C894   1.267       .  A
O887       Cr895   2.038       .  S
O887        C888   1.285       .  A
C888        O889   1.268       .  A
C888       C1629   1.511       .  S
O889       Cr896   1.997       .  S
O890       Cr896   1.979       .  S
O890        C891   1.261       .  A
C891        O892   1.263       .  A
C891       C1509   1.479       .  S
O892       Cr897   1.990       .  S
O893       Cr897   1.970       .  S
O893        C894   1.250       .  A
C894       C1526   1.489       .  S
Cr895       O898   1.766       .  S
Cr896       O898   1.766       .  S
Cr897       O898   1.764       .  S
O899       Cr917   2.089       .  S
O899        C907   1.291       .  A
O900       Cr917   1.979       .  S
O900        C901   1.259       .  A
C901        O902   1.262       .  A
C901       C1489   1.480       .  S
O902       Cr918   1.989       .  S
O903       Cr918   1.980       .  S
O903        C904   1.255       .  A
C904        O905   1.255       .  A
C904       C1476   1.438       .  S
O905       Cr919   1.953       .  S
O906       Cr919   1.955       .  S
O906        C907   1.259       .  A
C907       C1466   1.517       .  S
O908       Cr917   2.033       .  S
O908        C916   1.265       .  A
O909       Cr917   2.076       .  S
O909        C910   1.283       .  A
C910        O911   1.253       .  A
C910       C1599   1.503       .  S
O911       Cr918   1.946       .  S
O912       Cr918   1.993       .  S
O912        C913   1.268       .  A
C913        O914   1.269       .  A
C913       C1496   1.495       .  S
O914       Cr919   2.003       .  S
O915       Cr919   1.969       .  S
O915        C916   1.244       .  A
C916       C1529   1.501       .  S
Cr917       O920   1.757       .  S
Cr918       O920   1.756       .  S
Cr919       O920   1.759       .  S
O921       Cr939   2.009       .  S
O921        C929   1.262       .  A
O922       Cr939   1.972       .  S
O922        C923   1.257       .  A
C923        O924   1.256       .  A
C923       C1446   1.481       .  S
O924       Cr940   1.977       .  S
O925       Cr940   1.980       .  S
O925        C926   1.264       .  A
C926        O927   1.270       .  A
C926       C1506   1.483       .  S
O927       Cr941   2.016       .  S
O928       Cr941   2.027       .  S
O928        C929   1.272       .  A
C929       C1456   1.523       .  S
O930       Cr939   1.965       .  S
O930        C938   1.251       .  A
O931        C932   1.263       .  A
C932        O933   1.267       .  A
C932       C1516   1.489       .  S
O934       Cr940   1.973       .  S
O934        C935   1.256       .  A
C935        O936   1.282       .  A
C935       C1429   1.500       .  S
O936       Cr941   2.049       .  S
O937       Cr941   2.061       .  S
O937        C938   1.273       .  A
C938       C1436   1.504       .  S
Cr939       O942   1.764       .  S
Cr940       O942   1.767       .  S
Cr941       O942   1.771       .  S
O943       Cr961   2.018       .  S
O943        C951   1.267       .  A
O944       Cr961   1.941       .  S
O944        C945   1.244       .  A
C945        O946   1.256       .  A
C945       C1406   1.454       .  S
O946       Cr962   1.988       .  S
O947       Cr962   1.984       .  S
O947        C948   1.266       .  A
C948        O949   1.266       .  A
C948       C1499   1.481       .  S
O949       Cr963   1.994       .  S
O950       Cr963   2.030       .  S
O950        C951   1.267       .  A
C951       C1396   1.523       .  S
O953        C954   1.266       .  A
C954        O955   1.260   1_655  A
C954       C1486   1.481       .  S
O956       Cr962   1.973       .  S
O956        C957   1.256       .  A
C957        O958   1.284       .  A
C957       C1416   1.500       .  S
O958       Cr963   2.051       .  S
O959       Cr963   2.064       .  S
O959        C960   1.276       .  A
C960       C1439   1.502       .  S
Cr961       O964   1.778       .  S
Cr962       O964   1.776       .  S
Cr963       O964   1.769       .  S
O965       Cr983   2.002       .  S
O965        C973   1.255       .  A
O966       Cr983   1.971       .  S
O966        C967   1.261       .  A
C967        O968   1.255   1_545  A
C967       C1379   1.469   1_545  S
O968       Cr984   1.969   1_565  S
O969       Cr984   1.959   1_565  S
O969        C970   1.258   1_565  A
C970        O971   1.273       .  A
C970       C1609   1.484   1_545  S
O971       Cr985   2.026       .  S
O972       Cr985   2.056       .  S
O972        C973   1.271       .  A
C973       C1386   1.543       .  S
O974       Cr983   1.957       .  S
O974        C982   1.260       .  A
O975        C976   1.260       .  A
C976        O977   1.262       .  A
C976       C1619   1.494       .  S
O978       Cr984   1.964       .  S
O978        C979   1.254       .  A
C979        O980   1.277       .  A
C979       C1426   1.504       .  S
O980       Cr985   2.047       .  S
O981       Cr985   2.067       .  S
O981        C982   1.284       .  A
C982       C1366   1.515       .  S
Cr983       O986   1.777       .  S
Cr984       O986   1.774       .  S
Cr985       O986   1.771       .  S
O987      Cr1005   2.010       .  S
O987        C995   1.263       .  A
O988      Cr1005   1.959       .  S
O988        C989   1.249       .  A
C989        O990   1.257       .  A
C989       C1349   1.452       .  S
O990      Cr1006   1.976       .  S
O991      Cr1006   1.984       .  S
O991        C992   1.264       .  A
C992        O993   1.268       .  A
C992       C1589   1.473       .  S
O993      Cr1007   2.005       .  S
O994      Cr1007   2.043       .  S
O994        C995   1.274       .  A
C995       C1356   1.537       .  S
O997        C998   1.262       .  A
C998        O999   1.260   1_655  A
C998       C1579   1.483       .  S
O1000     Cr1006   1.981       .  S
O1000      C1001   1.255       .  A
C1001      O1002   1.281       .  A
C1001      C1419   1.504       .  S
O1002     Cr1007   2.058       .  S
O1003     Cr1007   2.049       .  S
O1003      C1004   1.274       .  A
C1004      C1369   1.511       .  S
Cr1005     O1008   1.779       .  S
Cr1006     O1008   1.775       .  S
Cr1007     O1008   1.761       .  S
O1009     Cr1027   1.954       .  S
O1009      C1017   1.253       .  A
O1010     Cr1027   1.960       .  S
O1010      C1011   1.257       .  A
C1011      O1012   1.260       .  A
C1011      C1659   1.445       .  S
O1012     Cr1028   1.980       .  S
O1013     Cr1028   2.002       .  S
O1013      C1014   1.260       .  A
C1014      O1015   1.255       .  A
C1014      C1309   1.479       .  S
O1015     Cr1029   1.972       .  S
O1016     Cr1029   2.085       .  S
O1016      C1017   1.288       .  A
C1017      C1389   1.533       .  S
O1018     Cr1027   1.994       .  S
O1018      C1026   1.260       .  A
O1019     Cr1027   1.976       .  S
O1019      C1020   1.261       .  A
C1020      O1021   1.261       .  A
C1020      C1316   1.478       .  S
O1021     Cr1028   1.987       .  S
O1022     Cr1028   1.954       .  S
O1022      C1023   1.253       .  A
C1023      O1024   1.285       .  A
C1023      C1329   1.510       .  S
O1024     Cr1029   2.084       .  S
O1025     Cr1029   2.022       .  S
O1025      C1026   1.265       .  A
C1026      C1339   1.496       .  S
Cr1027     O1030   1.771       .  S
Cr1028     O1030   1.768       .  S
Cr1029     O1030   1.771       .  S
O1031     Cr1049   2.011       .  S
O1031      C1039   1.261       .  A
O1032     Cr1049   1.960       .  S
O1032      C1033   1.249       .  A
C1033      O1034   1.261       .  A
C1033      C1569   1.469       .  S
O1034     Cr1050   1.987       .  S
O1035     Cr1050   1.983       .  S
O1035      C1036   1.263       .  A
C1036      O1037   1.265       .  A
C1036      C1286   1.472       .  S
O1037     Cr1051   2.002       .  S
O1038     Cr1051   2.041       .  S
O1038      C1039   1.272       .  A
C1039      C1359   1.538       .  S
O1040     Cr1049   1.958       .  S
O1040      C1048   1.256       .  A
O1041     Cr1049   2.008       .  S
O1041      C1042   1.262       .  A
C1042      O1043   1.262       .  A
C1042      C1276   1.489       .  S
O1043     Cr1050   1.983       .  S
O1044     Cr1050   1.985       .  S
O1044      C1045   1.260       .  A
C1045      O1046   1.277       .  A
C1045      C1296   1.497       .  S
O1046     Cr1051   2.035       .  S
O1047     Cr1051   2.039       .  S
O1047      C1048   1.274       .  A
C1048      C1336   1.498       .  S
Cr1049     O1052   1.776       .  S
Cr1050     O1052   1.776       .  S
Cr1051     O1052   1.767       .  S
O1053     Cr1071   1.967       .  S
O1053      C1061   1.268       .  A
O1054     Cr1071   1.937       .  S
O1054      C1055   1.239       .  A
C1055      O1056   1.262       .  A
C1055      C1546   1.489       .  S
O1056     Cr1072   2.002       .  S
O1057     Cr1072   2.001       .  S
O1057      C1058   1.268       .  A
C1058      O1059   1.261       .  A
C1058      C1246   1.502       .  S
O1059     Cr1073   1.977       .  S
O1060     Cr1073   2.083       .  S
O1060      C1061   1.293       .  A
C1061      C1459   1.519       .  S
O1062     Cr1071   1.963       .  S
O1062      C1070   1.235       .  A
O1063     Cr1071   2.012       .  S
O1063      C1064   1.278       .  A
C1064      O1065   1.274       .  A
C1064      C1256   1.491       .  S
O1065     Cr1072   1.987       .  S
O1066     Cr1072   1.955       .  S
O1066      C1067   1.253       .  A
C1067      O1068   1.277       .  A
C1067      C1326   1.512       .  S
O1068     Cr1073   2.052       .  S
O1069     Cr1073   2.055       .  S
O1069      C1070   1.262       .  A
C1070      C1266   1.500       .  S
Cr1071     O1074   1.769       .  S
Cr1072     O1074   1.766       .  S
Cr1073     O1074   1.767       .  S
O1075     Cr1093   1.976       .  S
O1075      C1083   1.269       .  A
O1076     Cr1093   1.929       .  S
O1076      C1077   1.237       .  A
C1077      O1078   1.255       .  A
C1077      C1479   1.446       .  S
O1078     Cr1094   2.007       .  S
O1079     Cr1094   1.990       .  S
O1079      C1080   1.262       .  A
C1080      O1081   1.255       .  A
C1080      C1236   1.487       .  S
O1081     Cr1095   1.962       .  S
O1082     Cr1095   2.096       .  S
O1082      C1083   1.297       .  A
C1083      C1399   1.522       .  S
O1084     Cr1093   1.955       .  S
O1084      C1092   1.241       .  A
O1085     Cr1093   2.001       .  S
O1085      C1086   1.279       .  A
C1086      O1087   1.277       .  A
C1086      C1226   1.496       .  S
O1087     Cr1094   2.003       .  S
O1088     Cr1094   1.974       .  S
O1088      C1089   1.260       .  A
C1089      O1090   1.275       .  A
C1089      C1299   1.493       .  S
O1090     Cr1095   2.033       .  S
O1091     Cr1095   2.027       .  S
O1091      C1092   1.252       .  A
C1092      C1269   1.481       .  S
Cr1093     O1096   1.781       .  S
Cr1094     O1096   1.775       .  S
Cr1095     O1096   1.775       .  S
O1097     Cr1115   2.022       .  S
O1097      C1105   1.268       .  A
O1098     Cr1115   2.012       .  S
O1098      C1099   1.270       .  A
C1099      O1100   1.259       .  A
C1099      C1319   1.500       .  S
O1100     Cr1116   1.974       .  S
O1101     Cr1116   1.980       .  S
O1101      C1102   1.251       .  A
C1102      O1103   1.253       .  A
C1102      C1376   1.469       .  S
O1103     Cr1117   1.959       .  S
O1104     Cr1117   2.008       .  S
O1104      C1105   1.262       .  A
C1105      C1649   1.528       .  S
O1106     Cr1115   2.051       .  S
O1106      C1114   1.277       .  A
O1107     Cr1115   2.038       .  S
O1107      C1108   1.277       .  A
C1108      O1109   1.256       .  A
C1108      C1206   1.488       .  S
O1109     Cr1116   1.975       .  S
O1110      C1111   1.264   1_455  A
C1111      O1112   1.267       .  A
C1111      C1306   1.493       .  S
C1114      C1216   1.501       .  S
Cr1115     O1118   1.758       .  S
Cr1116     O1118   1.769       .  S
Cr1117     O1118   1.762       .  S
O1119     Cr1137   2.037       .  S
O1119      C1127   1.272       .  A
O1120     Cr1137   2.017       .  S
O1120      C1121   1.268       .  A
C1121      O1122   1.261       .  A
C1121      C1279   1.490       .  S
O1122     Cr1138   1.979       .  S
O1123     Cr1138   1.971       .  S
O1123      C1124   1.254       .  A
C1124      O1125   1.247       .  A
C1124      C1346   1.456       .  S
O1125     Cr1139   1.957       .  S
O1126     Cr1139   2.021       .  S
O1126      C1127   1.268       .  A
C1127      C1556   1.538       .  S
O1128     Cr1137   2.076       .  S
O1128      C1136   1.276       .  A
O1129     Cr1137   2.052       .  S
O1129      C1130   1.285       .  A
C1130      O1131   1.260       .  A
C1130      C1196   1.500       .  S
O1131     Cr1138   1.978       .  S
O1132      C1133   1.265       .  A
C1133      O1134   1.262       .  A
C1133      C1289   1.472       .  S
O1135     Cr1139   1.956       .  S
O1135      C1136   1.245       .  A
C1136      C1219   1.523       .  S
Cr1137     O1140   1.769       .  S
Cr1138     O1140   1.768       .  S
Cr1139     O1140   1.758       .  S
O1141     Cr1159   2.060       .  S
O1141      C1149   1.275       .  A
O1142     Cr1159   1.980       .  S
O1142      C1143   1.259       .  A
C1143      O1144   1.264       .  A
C1143      C1259   1.487   1_545  S
O1144     Cr1160   1.991       .  S
O1145     Cr1160   1.980   1_565  S
O1145      C1146   1.252   1_565  A
C1146      O1147   1.254       .  A
C1146      C1449   1.485   1_545  S
O1147     Cr1161   1.962       .  S
O1148     Cr1161   2.000       .  S
O1148      C1149   1.260       .  A
C1149      C1536   1.549       .  S
O1150     Cr1159   2.026       .  S
O1150      C1158   1.271       .  A
O1151     Cr1159   2.044       .  S
O1151      C1152   1.281       .  A
C1152      O1153   1.256       .  A
C1152      C1209   1.489       .  S
O1153     Cr1160   1.967       .  S
O1154      C1155   1.266   1_455  A
C1155      O1156   1.261       .  A
C1155      C1249   1.502       .  S
C1158      C1186   1.497       .  S
Cr1159     O1162   1.767       .  S
Cr1160     O1162   1.780       .  S
Cr1161     O1162   1.769       .  S
O1163     Cr1181   2.029       .  S
O1163      C1171   1.270       .  A
O1164     Cr1181   2.008       .  S
O1164      C1165   1.265       .  A
C1165      O1166   1.263       .  A
C1165      C1229   1.500       .  S
O1166     Cr1182   1.990       .  S
O1167     Cr1182   1.997       .  S
O1167      C1168   1.263       .  A
C1168      O1169   1.247       .  A
C1168      C1409   1.463       .  S
O1169     Cr1183   1.952       .  S
O1170     Cr1183   2.018       .  S
O1170      C1171   1.265       .  A
C1171      C1469   1.532       .  S
O1172     Cr1181   2.080       .  S
O1172      C1180   1.277       .  A
O1173     Cr1181   2.037       .  S
O1173      C1174   1.284       .  A
C1174      O1175   1.264       .  A
C1174      C1199   1.496       .  S
O1175     Cr1182   1.988       .  S
O1176      C1177   1.260       .  A
C1177      O1178   1.262       .  A
C1177      C1239   1.471       .  S
O1179     Cr1183   1.953       .  S
O1179      C1180   1.245       .  A
C1180      C1189   1.518       .  S
Cr1181     O1184   1.767       .  S
Cr1182     O1184   1.769       .  S
Cr1183     O1184   1.760       .  S
C1185      C1186   1.406       .  A
C1185      C1190   1.407       .  A
C1185     Br1192   1.939       .  S
C1187      C1188   1.424       .  A
C1187     Br1194   1.929       .  S
C1188      C1189   1.421       .  A
C1188     Br1193   1.928       .  S
C1190     Br1191   1.938       .  S
C1195      C1196   1.412       .  A
C1195      C1200   1.420       .  A
C1195     Br1202   1.923       .  S
C1196      C1197   1.419       .  A
C1197      C1198   1.416       .  A
C1197     Br1204   1.932       .  S
C1198      C1199   1.410       .  A
C1198     Br1203   1.927       .  S
C1199      C1200   1.416       .  A
C1200     Br1201   1.929       .  S
C1205      C1206   1.411       .  A
C1205      C1210   1.417   1_565  A
C1206      C1207   1.413       .  A
C1207      C1208   1.414   1_565  A
C1207     Br1214   1.928       .  S
C1208      C1209   1.412       .  A
C1208     Br1213   1.927       .  S
C1209      C1210   1.414       .  A
C1215      C1220   1.423       .  A
C1215     Br1222   1.930       .  S
C1216      C1217   1.408       .  A
C1217      C1218   1.415       .  A
C1217     Br1224   1.938       .  S
C1218     Br1223   1.944       .  S
C1219      C1220   1.421       .  A
C1220     Br1221   1.928       .  S
C1225      C1226   1.414       .  A
C1225      C1230   1.404       .  A
C1225     Br1232   1.938       .  S
C1226      C1227   1.416       .  A
C1227      C1228   1.418       .  A
C1227     Br1234   1.932       .  S
C1228      C1229   1.422       .  A
C1228     Br1233   1.934       .  S
C1229      C1230   1.418       .  A
C1230     Br1231   1.938       .  S
C1235      C1236   1.419       .  A
C1235      C1240   1.409       .  A
C1235     Br1242   1.936       .  S
C1236      C1237   1.420       .  A
C1237      C1238   1.405       .  A
C1237     Br1244   1.937       .  S
C1238      C1239   1.405       .  A
C1238     Br1243   1.932       .  S
C1239      C1240   1.406       .  A
C1240     Br1241   1.929       .  S
C1245      C1246   1.414   1_545  A
C1245      C1250   1.410       .  A
C1245     Br1252   1.934       .  S
C1246      C1247   1.424       .  A
C1247      C1248   1.413       .  A
C1247     Br1254   1.939       .  S
C1248      C1249   1.417   1_565  A
C1248     Br1253   1.938       .  S
C1249      C1250   1.424       .  A
C1250     Br1251   1.941       .  S
C1255      C1256   1.404       .  A
C1255      C1260   1.412       .  A
C1255     Br1262   1.916       .  S
C1256      C1257   1.407   1_565  A
C1257      C1258   1.399       .  A
C1257     Br1264   1.939       .  S
C1258      C1259   1.422   1_545  A
C1258     Br1263   1.935       .  S
C1259      C1260   1.421       .  A
C1260     Br1261   1.932       .  S
C1265      C1266   1.428       .  A
C1265      C1270   1.403       .  A
C1265     Br1272   1.941       .  S
C1266      C1267   1.416       .  A
C1267      C1268   1.421       .  A
C1267     Br1274   1.926       .  S
C1268      C1269   1.411       .  A
C1268     Br1273   1.924       .  S
C1269      C1270   1.397       .  A
C1270     Br1271   1.932       .  S
C1275      C1276   1.417       .  A
C1275      C1280   1.408       .  A
C1275     Br1282   1.936       .  S
C1276      C1277   1.416       .  A
C1277      C1278   1.410       .  A
C1277     Br1284   1.937       .  S
C1278      C1279   1.416       .  A
C1278     Br1283   1.933       .  S
C1279      C1280   1.416       .  A
C1280     Br1281   1.938       .  S
C1285      C1286   1.410       .  A
C1285      C1290   1.409       .  A
C1285     Br1292   1.927       .  S
C1286      C1287   1.402       .  A
C1287      C1288   1.402       .  A
C1287     Br1294   1.920       .  S
C1288      C1289   1.409       .  A
C1288     Br1293   1.923       .  S
C1289      C1290   1.409       .  A
C1290     Br1291   1.925       .  S
C1295      C1296   1.412       .  A
C1295      C1300   1.419       .  A
C1295     Br1302   1.929       .  S
C1296      C1297   1.417       .  A
C1297      C1298   1.414       .  A
C1297     Br1304   1.924       .  S
C1298      C1299   1.406       .  A
C1298     Br1303   1.930       .  S
C1299      C1300   1.414       .  A
C1300     Br1301   1.924       .  S
C1305      C1306   1.421   1_545  A
C1305      C1310   1.409       .  A
C1305     Br1312   1.939       .  S
C1306      C1307   1.421       .  A
C1307      C1308   1.406       .  A
C1307     Br1314   1.937       .  S
C1308      C1309   1.408   1_565  A
C1308     Br1313   1.936       .  S
C1309      C1310   1.413       .  A
C1310     Br1311   1.937       .  S
C1315      C1316   1.411       .  A
C1315      C1320   1.414       .  A
C1315     Br1322   1.936       .  S
C1316      C1317   1.406       .  A
C1317      C1318   1.399   1_545  A
C1317     Br1324   1.936   1_545  S
C1318      C1319   1.420       .  A
C1318     Br1323   1.938       .  S
C1319      C1320   1.429   1_565  A
C1320     Br1321   1.938       .  S
C1325      C1326   1.428   1_545  A
C1325      C1330   1.420       .  A
C1325     Br1332   1.935       .  S
C1326      C1327   1.409       .  A
C1327      C1328   1.419       .  A
C1327     Br1334   1.930       .  S
C1328      C1329   1.427   1_565  A
C1328     Br1333   1.934       .  S
C1329      C1330   1.407       .  A
C1330     Br1331   1.930       .  S
C1335      C1336   1.417       .  A
C1335      C1340   1.414       .  A
C1335     Br1342   1.928       .  S
C1336      C1337   1.411       .  A
C1337      C1338   1.412       .  A
C1337     Br1344   1.931       .  S
C1338      C1339   1.415       .  A
C1338     Br1343   1.918       .  S
C1339      C1340   1.407       .  A
C1340     Br1341   1.924       .  S
C1345      C1346   1.406       .  A
C1345      C1350   1.400       .  A
C1345     Br1352   1.937       .  S
C1346      C1347   1.418       .  A
C1347     Br1354   1.929   1_655  S
C1348      C1349   1.398       .  A
C1348     Br1353   1.935       .  S
C1350     Br1351   1.927       .  S
C1355      C1356   1.431       .  A
C1355      C1360   1.426       .  A
C1355     Br1362   1.925       .  S
C1356      C1357   1.416       .  A
C1357      C1358   1.428       .  A
C1357     Br1364   1.933       .  S
C1358      C1359   1.427       .  A
C1358     Br1363   1.925       .  S
C1359      C1360   1.412       .  A
C1360     Br1361   1.934       .  S
C1365      C1366   1.416       .  A
C1365      C1370   1.418       .  A
C1365     Br1372   1.928       .  S
C1367      C1368   1.417       .  A
C1367     Br1374   1.931       .  S
C1368      C1369   1.413       .  A
C1368     Br1373   1.929       .  S
C1370     Br1371   1.928       .  S
C1375      C1380   1.398       .  A
C1375     Br1382   1.929       .  S
C1376      C1377   1.404       .  A
C1377      C1378   1.394       .  A
C1377     Br1384   1.934       .  S
C1378     Br1383   1.932       .  S
C1379      C1380   1.399   1_565  A
C1380     Br1381   1.933       .  S
C1385      C1386   1.421       .  A
C1385      C1390   1.427       .  A
C1385     Br1392   1.932       .  S
C1386      C1387   1.436       .  A
C1387      C1388   1.430       .  A
C1387     Br1394   1.936       .  S
C1388      C1389   1.414       .  A
C1388     Br1393   1.930       .  S
C1389      C1390   1.425       .  A
C1390     Br1391   1.937       .  S
C1395      C1396   1.418       .  A
C1395      C1400   1.435   1_554  A
C1395     Br1402   1.923       .  S
C1396      C1397   1.412       .  A
C1397      C1398   1.413   1_554  A
C1397     Br1404   1.920       .  S
C1398      C1399   1.414       .  A
C1398     Br1403   1.921       .  S
C1399      C1400   1.420       .  A
C1400     Br1401   1.920       .  S
C1405      C1406   1.399       .  A
C1405     Br1412   1.939       .  S
C1407      C1408   1.399   1_554  A
C1407     Br1414   1.933       .  S
C1408      C1409   1.402       .  A
C1408     Br1413   1.935       .  S
C1409      C1410   1.420       .  A
C1410     Br1411   1.924       .  S
C1415      C1416   1.416       .  A
C1415      C1420   1.420       .  A
C1416      C1417   1.415       .  A
C1417      C1418   1.422       .  A
C1417     Br1424   1.929       .  S
C1418      C1419   1.416       .  A
C1418     Br1423   1.928       .  S
C1419      C1420   1.415       .  A
C1425      C1426   1.405       .  A
C1425      C1430   1.417       .  A
C1425     Br1432   1.929       .  S
C1426      C1427   1.420   1_545  A
C1427      C1428   1.419       .  A
C1428      C1429   1.409       .  A
C1429      C1430   1.423   1_565  A
C1430     Br1431   1.928       .  S
C1435      C1440   1.406       .  A
C1435     Br1442   1.936       .  S
C1436      C1437   1.415       .  A
C1437      C1438   1.426       .  A
C1437     Br1444   1.926       .  S
C1438     Br1443   1.925       .  S
C1439      C1440   1.410       .  A
C1440     Br1441   1.922       .  S
C1445      C1446   1.410   1_545  A
C1446      C1447   1.399   1_554  A
C1447      C1448   1.401       .  A
C1447     Br1454   1.922       .  S
C1448     Br1453   1.937   1_655  S
C1449      C1450   1.411   1_566  A
C1450     Br1451   1.932       .  S
C1455      C1456   1.424   1_556  A
C1455      C1460   1.424       .  A
C1455     Br1462   1.929       .  S
C1456      C1457   1.407       .  A
C1457      C1458   1.417       .  A
C1457     Br1464   1.926       .  S
C1458      C1459   1.425   1_554  A
C1458     Br1463   1.932       .  S
C1459      C1460   1.419       .  A
C1460     Br1461   1.933       .  S
C1465      C1466   1.411       .  A
C1465      C1470   1.423   1_554  A
C1465     Br1472   1.929       .  S
C1466      C1467   1.423   1_554  A
C1467      C1468   1.422       .  A
C1467     Br1474   1.935       .  S
C1468      C1469   1.416       .  A
C1468     Br1473   1.929       .  S
C1469      C1470   1.427       .  A
C1470     Br1471   1.922       .  S
C1475      C1476   1.397       .  A
C1475      C1480   1.397   1_554  A
C1475     Br1482   1.927       .  S
C1476      C1477   1.400   1_554  A
C1477      C1478   1.399       .  A
C1477     Br1484   1.924       .  S
C1478      C1479   1.410       .  A
C1478     Br1483   1.927       .  S
C1479      C1480   1.409       .  A
C1480     Br1481   1.919   1_556  S
C1485      C1486   1.413       .  A
C1485      C1490   1.402       .  A
C1485     Br1492   1.935       .  S
C1486      C1487   1.420       .  A
C1487      C1488   1.407       .  A
C1487     Br1494   1.938       .  S
C1488      C1489   1.413       .  A
C1488     Br1493   1.936       .  S
C1489      C1490   1.411       .  A
C1490     Br1491   1.934       .  S
C1495      C1496   1.415       .  A
C1495      C1500   1.415       .  A
C1495     Br1502   1.924       .  S
C1496      C1497   1.413       .  A
C1497      C1498   1.393       .  A
C1497     Br1504   1.939       .  S
C1498      C1499   1.412       .  A
C1498     Br1503   1.934       .  S
C1499      C1500   1.416       .  A
C1500     Br1501   1.932       .  S
C1505      C1506   1.413   1_545  A
C1505      C1510   1.407       .  A
C1505     Br1512   1.933       .  S
C1506      C1507   1.410       .  A
C1507      C1508   1.406       .  A
C1507     Br1514   1.919       .  S
C1508      C1509   1.413   1_565  A
C1508     Br1513   1.938       .  S
C1509      C1510   1.412       .  A
C1510     Br1511   1.934       .  S
C1515      C1516   1.410   1_545  A
C1515      C1520   1.409       .  A
C1515     Br1522   1.937       .  S
C1516      C1517   1.418       .  A
C1517      C1518   1.409       .  A
C1517     Br1524   1.930       .  S
C1518      C1519   1.412   1_565  A
C1518     Br1523   1.936       .  S
C1519      C1520   1.424       .  A
C1520     Br1521   1.936       .  S
C1525      C1526   1.412       .  A
C1525      C1530   1.416       .  A
C1525     Br1532   1.920       .  S
C1526      C1527   1.405       .  A
C1527      C1528   1.406       .  A
C1527     Br1534   1.933       .  S
C1528      C1529   1.431       .  A
C1528     Br1533   1.946       .  S
C1529      C1530   1.416       .  A
C1530     Br1531   1.931       .  S
C1535      C1536   1.434       .  A
C1535      C1540   1.427   1_556  A
C1535     Br1542   1.938       .  S
C1536      C1537   1.424       .  A
C1537      C1538   1.431   1_556  A
C1537     Br1544   1.926       .  S
C1538      C1539   1.426       .  A
C1538     Br1543   1.934       .  S
C1539      C1540   1.414       .  A
C1540     Br1541   1.928       .  S
C1545      C1546   1.435       .  A
C1545      C1550   1.399   1_565  A
C1545     Br1552   1.934       .  S
C1546      C1547   1.411   1_565  A
C1547      C1548   1.405   1_556  A
C1547     Br1554   1.931       .  S
C1548      C1549   1.414       .  A
C1548     Br1553   1.930       .  S
C1549      C1550   1.390   1_554  A
C1550     Br1551   1.939   1_546  S
C1555      C1556   1.414       .  A
C1555      C1560   1.431       .  A
C1555     Br1562   1.928       .  S
C1556      C1557   1.420       .  A
C1557      C1558   1.424       .  A
C1557     Br1564   1.926       .  S
C1558      C1559   1.425       .  A
C1558     Br1563   1.927       .  S
C1559      C1560   1.434       .  A
C1560     Br1561   1.932       .  S
C1565      C1566   1.401       .  A
C1565      C1570   1.401       .  A
C1565     Br1572   1.938       .  S
C1566      C1567   1.417       .  A
C1567      C1568   1.398       .  A
C1567     Br1574   1.931       .  S
C1568      C1569   1.405       .  A
C1568     Br1573   1.937       .  S
C1569      C1570   1.422       .  A
C1570     Br1571   1.927       .  S
C1575      C1576   1.420       .  A
C1575      C1580   1.405       .  A
C1575     Br1582   1.944       .  S
C1576      C1577   1.421       .  A
C1577      C1578   1.405       .  A
C1577     Br1584   1.942       .  S
C1578      C1579   1.415       .  A
C1578     Br1583   1.941       .  S
C1579      C1580   1.417       .  A
C1580     Br1581   1.939       .  S
C1585      C1586   1.410       .  A
C1585      C1590   1.411       .  A
C1585     Br1592   1.927       .  S
C1586      C1587   1.404       .  A
C1587      C1588   1.400       .  A
C1587     Br1594   1.924       .  S
C1588      C1589   1.402       .  A
C1588     Br1593   1.915       .  S
C1589      C1590   1.410       .  A
C1590     Br1591   1.927       .  S
C1595      C1596   1.413       .  A
C1595      C1600   1.419       .  A
C1595     Br1602   1.927       .  S
C1596      C1597   1.412       .  A
C1597      C1598   1.417       .  A
C1597     Br1604   1.926       .  S
C1598      C1599   1.417       .  A
C1598     Br1603   1.933       .  S
C1599      C1600   1.416       .  A
C1600     Br1601   1.925       .  S
C1605      C1606   1.399       .  A
C1605      C1610   1.402       .  A
C1605     Br1612   1.933       .  S
C1606      C1607   1.409       .  A
C1607      C1608   1.408       .  A
C1607     Br1614   1.930       .  S
C1608      C1609   1.415       .  A
C1608     Br1613   1.933       .  S
C1609      C1610   1.413       .  A
C1610     Br1611   1.910       .  S
C1615      C1616   1.414       .  A
C1615      C1620   1.406       .  A
C1615     Br1622   1.937       .  S
C1616      C1617   1.406   1_565  A
C1617      C1618   1.411       .  A
C1617     Br1624   1.934       .  S
C1618      C1619   1.425       .  A
C1618     Br1623   1.936       .  S
C1619      C1620   1.418   1_545  A
C1620     Br1621   1.937       .  S
C1625      C1626   1.419       .  A
C1625      C1630   1.419       .  A
C1625     Br1632   1.930       .  S
C1626      C1627   1.436   1_565  A
C1627      C1628   1.421       .  A
C1627     Br1634   1.941       .  S
C1628      C1629   1.407       .  A
C1628     Br1633   1.925       .  S
C1629      C1630   1.419   1_545  A
C1630     Br1631   1.935       .  S
C1635      C1636   1.401       .  A
C1635      C1640   1.404       .  A
C1635     Br1642   1.939       .  S
C1636      C1637   1.410       .  A
C1637      C1638   1.419       .  A
C1637     Br1644   1.926       .  S
C1638      C1639   1.419       .  A
C1638     Br1643   1.928       .  S
C1639      C1640   1.434       .  A
C1640     Br1641   1.944       .  S
C1645      C1646   1.418       .  A
C1645      C1650   1.417       .  A
C1645     Br1652   1.938       .  S
C1646      C1647   1.411       .  A
C1647      C1648   1.424       .  A
C1647     Br1654   1.931       .  S
C1648      C1649   1.433       .  A
C1648     Br1653   1.935       .  S
C1649      C1650   1.421       .  A
C1650     Br1651   1.932       .  S
C1655      C1656   1.408   1_545  A
C1655      C1660   1.400       .  A
C1655     Br1662   1.928       .  S
C1656      C1657   1.405       .  A
C1657      C1658   1.398       .  A
C1657     Br1664   1.925       .  S
C1658      C1659   1.403   1_565  A
C1658     Br1663   1.928       .  S
C1659      C1660   1.401       .  A
C1660     Br1661   1.920       .  S
