geometry optimzed in LAMMPS
_audit_creation_date              2020-12-01 
_audit_creation_method            'lammps2cif' 
_symmetry_space_group_name_H-M    'P1' 
_symmetry_Int_Tables_number       1 
_symmetry_cell_setting            triclinic 
loop_ 
_symmetry_equiv_pos_as_xyz 
  x,y,z 
_cell_length_a                    59.31297055 
_cell_length_b                    33.73041813457135 
_cell_length_c                    65.11917508639215 
_cell_angle_alpha                 90.06967067555317 
_cell_angle_beta                  90.1141766219166 
_cell_angle_gamma                 90.060355483036 
loop_ 
_atom_site_label 
_atom_site_type_symbol 
_atom_site_fract_x 
_atom_site_fract_y 
_atom_site_fract_z 
_atom_site_charge 
O1          O  0.61008151  0.32001111  0.92434891    -0.80700
O2          O  0.61332713  0.27404758  0.83317072    -0.65400
O3          O  0.63104390  0.29441515  0.88865992    -1.12000
C4          C  0.62779814  0.42957510  0.86822037     1.06200
O5          O  0.63707236  0.31884935  0.82076264    -0.78600
O6          O  0.66336458  0.36302421  0.84600398    -0.66100
Ni7        Ni  0.61606659  0.27019725  0.91109995     1.34900
C8          C  0.67266773  0.35814054  0.86341108     0.85000
O9          O  0.62414660  0.22659256  0.86499270    -0.79100
O10         O  0.62112119  0.21880163  0.89936170    -0.89400
C11         C  0.62369228  0.28983650  0.81819175     0.84500
O12         O  0.58604107  0.27060236  0.90082075    -0.67600
O13         O  0.62913884  0.41657748  0.84991913    -0.86900
C14         C  0.57744005  0.27362370  0.88308434     0.85400
C15         C  0.62370196  0.20518699  0.88121388     1.06900
H16         H  0.60338150  0.34686532  0.85910396     0.38700
O17         O  0.61915003  0.33973168  0.85950357    -1.09500
O18         O  0.66159863  0.35245218  0.87995701    -0.66200
Ni19       Ni  0.62973286  0.35081411  0.88686951     1.26300
O20         O  0.58915166  0.27939331  0.86696980    -0.66400
O21         O  0.62780091  0.40747004  0.88411381    -0.78700
C22         C  0.62530522  0.34481602  0.92909962     0.84700
O23         O  0.63848226  0.35809501  0.91531395    -0.65900
Ni24       Ni  0.63279456  0.36622706  0.83679722     1.27400
Ni25       Ni  0.62133479  0.28297857  0.86139733     1.26100
H26         H  0.64666833  0.28652930  0.88967210     0.39300
O27         O  0.61002387  0.81434717  0.92499944    -0.80700
O28         O  0.61199032  0.77677497  0.83265347    -0.65400
O29         O  0.63110465  0.79438773  0.88804145    -1.12000
C30         C  0.62870884  0.92978456  0.87100366     1.06200
O31         O  0.63384843  0.82401382  0.81955624    -0.78600
O32         O  0.66296842  0.85619148  0.84710734    -0.66100
Ni33       Ni  0.61770521  0.76679228  0.91030773     1.34900
C34         C  0.67147693  0.85600050  0.86501790     0.85000
O35         O  0.62416422  0.72759503  0.86310424    -0.79100
O36         O  0.62438748  0.71726930  0.89735045    -0.89400
C37         C  0.62125421  0.79380532  0.81744634     0.84500
O38         O  0.58751218  0.76472834  0.90054264    -0.67600
O39         O  0.63345324  0.91745897  0.85307675    -0.86900
C40         C  0.57820868  0.77096530  0.88333590     0.85400
C41         C  0.62558321  0.70505198  0.87884477     1.06900
H42         H  0.60237586  0.84817689  0.85883575     0.38700
O43         O  0.61813050  0.84111093  0.85971747    -1.09500
O44         O  0.65974127  0.85592184  0.88137439    -0.66200
Ni45       Ni  0.62797146  0.85059490  0.88752170     1.26300
O46         O  0.58912921  0.78016346  0.86721831    -0.66400
O47         O  0.62438218  0.90693370  0.88602691    -0.78700
C48         C  0.62390227  0.84150396  0.92967078     0.84700
O49         O  0.63642467  0.85667519  0.91598408    -0.65900
Ni50       Ni  0.63324055  0.86857249  0.83805071     1.27400
Ni51       Ni  0.62090534  0.78432040  0.86073303     1.26100
H52         H  0.64696922  0.78790740  0.88845839     0.39300
O53         O  0.61000838  0.17334903  0.57519778    -0.80700
O54         O  0.61203248  0.21757927  0.66706421    -0.65400
O55         O  0.63073440  0.19710320  0.61179338    -1.12000
C56         C  0.62702964  0.06216526  0.63191254     1.06200
O57         O  0.63550548  0.17273400  0.67979403    -0.78600
O58         O  0.66243273  0.13089913  0.65438038    -0.66100
Ni59       Ni  0.61667149  0.22245068  0.58909060     1.34900
C60         C  0.67138997  0.13318728  0.63672608     0.85000
O61         O  0.62371830  0.26526067  0.63555846    -0.79100
O62         O  0.62246515  0.27336856  0.60114141    -0.89400
C63         C  0.62197080  0.20144739  0.68221933     0.84500
O64         O  0.58644060  0.22314198  0.59891570    -0.67600
O65         O  0.62934834  0.07544842  0.65008665    -0.86900
C66         C  0.57744444  0.21905566  0.61643672     0.85400
C67         C  0.62421868  0.28683742  0.61939709     1.06900
H68         H  0.60229670  0.14503643  0.64132697     0.38700
O69         O  0.61808947  0.15200645  0.64080112    -1.09500
O70         O  0.66010838  0.13700871  0.62016908    -0.66200
Ni71       Ni  0.62838276  0.14071203  0.61339571     1.26300
O72         O  0.58876439  0.21253235  0.63270359    -0.66400
O73         O  0.62561799  0.08412704  0.61603099    -0.78700
C74         C  0.62459423  0.14711389  0.57097164     0.84700
O75         O  0.63714975  0.13318332  0.58506753    -0.65900
Ni76       Ni  0.63201723  0.12567460  0.66344814     1.27400
Ni77       Ni  0.62066979  0.20874514  0.63896493     1.26100
H78         H  0.64650869  0.20419355  0.61114995     0.39300
O79         O  0.60594456  0.67501280  0.57538698    -0.80700
O80         O  0.61223807  0.72024552  0.66644172    -0.65400
O81         O  0.62883952  0.69701171  0.61105084    -1.12000
C82         C  0.62495526  0.56261635  0.62925781     1.06200
O83         O  0.62814536  0.66751257  0.68117586    -0.78600
O84         O  0.65874677  0.63765817  0.65384913    -0.66100
Ni85       Ni  0.61498460  0.72351825  0.58863342     1.34900
C86         C  0.66781184  0.63519674  0.63618810     0.85000
O87         O  0.62477644  0.76571074  0.63466837    -0.79100
O88         O  0.62311124  0.77361560  0.60023699    -0.89400
C89         C  0.61884452  0.70131329  0.68220647     0.84500
O90         O  0.58520550  0.72889667  0.59921220    -0.67600
O91         O  0.63016142  0.57539315  0.64696994    -0.86900
C92         C  0.57659783  0.72577767  0.61693284     0.85400
C93         C  0.62554502  0.78709330  0.61842991     1.06900
H94         H  0.59899089  0.64745072  0.64087065     0.38700
O95         O  0.61497639  0.65278465  0.64011347    -1.09500
O96         O  0.65647205  0.63409331  0.61945263    -0.66200
Ni97       Ni  0.62471599  0.64116263  0.61243022     1.26300
O98         O  0.58800030  0.71680073  0.63281484    -0.66400
O99         O  0.62000413  0.58518572  0.61433354    -0.78700
C100        C  0.61966989  0.64781660  0.57039838     0.84700
O101        O  0.63280198  0.63337915  0.58391270    -0.65900
Ni102      Ni  0.62891624  0.62411699  0.66207013     1.27400
Ni103      Ni  0.61981884  0.70950845  0.63831640     1.26100
H104        H  0.64479213  0.70253800  0.61006795     0.39300
O105        O  0.38970055  0.18105868  0.92637720    -0.80700
O106        O  0.38670651  0.22627043  0.83470606    -0.65400
O107        O  0.36842656  0.20423699  0.88992861    -1.12000
C108        C  0.37491836  0.06958150  0.86975214     1.06200
O109        O  0.36426515  0.17952263  0.82211423    -0.78600
O110        O  0.33829026  0.13642016  0.84703641    -0.66100
Ni111      Ni  0.38207412  0.22992151  0.91275762     1.34900
C112        C  0.32904843  0.13891245  0.86454413     0.85000
O113        O  0.37413046  0.27299568  0.86649743    -0.79100
O114        O  0.37541633  0.28063064  0.90096005    -0.89400
C115        C  0.37725390  0.20897844  0.81958945     0.84500
O116        O  0.41225680  0.23252759  0.90298709    -0.67600
O117        O  0.37233285  0.08223184  0.85149589    -0.86900
C118        C  0.42135323  0.22908772  0.88547816     0.85400
C119        C  0.37331830  0.29429672  0.88277320     1.06900
H120        H  0.39792002  0.15416924  0.86037399     0.38700
O121        O  0.38199581  0.16011292  0.86082439    -1.09500
O122        O  0.34010390  0.14281559  0.88122678    -0.66200
Ni123      Ni  0.37179771  0.14814817  0.88809251     1.26300
O124        O  0.41014809  0.22219313  0.86916059    -0.66400
O125        O  0.37574802  0.09201151  0.88547599    -0.78700
C126        C  0.37609296  0.15293227  0.93015229     0.84700
O127        O  0.36319046  0.13965805  0.91619408    -0.65900
Ni128      Ni  0.36875636  0.13257376  0.83819100     1.27400
Ni129      Ni  0.37829074  0.21669887  0.86282743     1.26100
H130        H  0.35253809  0.21042301  0.89061960     0.39300
O131        O  0.38898820  0.68010989  0.92670698    -0.80700
O132        O  0.38945466  0.72389320  0.83457595    -0.65400
O133        O  0.36955526  0.70443487  0.88962709    -1.12000
C134        C  0.37161505  0.56943352  0.86854844     1.06200
O135        O  0.36399597  0.68213235  0.82233235    -0.78600
O136        O  0.33677820  0.63921146  0.84677185    -0.66100
Ni137      Ni  0.38373902  0.72926582  0.91252017     1.34900
C138        C  0.32785628  0.64221689  0.86440923     0.85000
O139        O  0.37845623  0.77216180  0.86594171    -0.79100
O140        O  0.37977895  0.78063423  0.90029682    -0.89400
C141        C  0.37889825  0.70853887  0.81953008     0.84500
O142        O  0.41404645  0.72724262  0.90324696    -0.67600
O143        O  0.36966531  0.58300363  0.85038697    -0.86900
C144        C  0.42317140  0.72282598  0.88582519     0.85400
C145        C  0.37861559  0.79400391  0.88199921     1.06900
H146        H  0.39719895  0.65096433  0.85999114     0.38700
O147        O  0.38156063  0.65889227  0.86051683    -1.09500
O148        O  0.33923438  0.64584207  0.88092401    -0.66200
Ni149      Ni  0.37098982  0.64782364  0.88772979     1.26300
O150        O  0.41200942  0.71722551  0.86936159    -0.66400
O151        O  0.37288146  0.59115834  0.88459111    -0.78700
C152        C  0.37459498  0.65312912  0.93026893     0.84700
O153        O  0.36203336  0.63998933  0.91595759    -0.65900
Ni154      Ni  0.36721432  0.63391472  0.83765755     1.27400
Ni155      Ni  0.38021183  0.71561726  0.86256285     1.26100
H156        H  0.35390095  0.71230152  0.89010002     0.39300
O157        O  0.39095464  0.30759957  0.57491034    -0.80700
O158        O  0.38560077  0.26569471  0.66647566    -0.65400
O159        O  0.36823666  0.28495187  0.61066257    -1.12000
C160        C  0.36973642  0.42018175  0.62912262     1.06200
O161        O  0.36373479  0.31305952  0.67940799    -0.78600
O162        O  0.33517092  0.34601175  0.65206806    -0.66100
Ni163      Ni  0.38279946  0.25889539  0.58847713     1.34900
C164        C  0.32659303  0.34508376  0.63419193     0.85000
O165        O  0.37426767  0.21746962  0.63482626    -0.79100
O166        O  0.37562857  0.20863215  0.60040216    -0.89400
C167        C  0.37658366  0.28335242  0.68165988     0.84500
O168        O  0.41257622  0.25559486  0.59929297    -0.67600
O169        O  0.36510804  0.40750728  0.64698613    -0.86900
C170        C  0.42121266  0.26058688  0.61691525     0.85400
C171        C  0.37351705  0.19565268  0.61870176     1.06900
H172        H  0.39584710  0.33810963  0.64078108     0.38700
O173        O  0.38010216  0.33099720  0.63971474    -1.09500
O174        O  0.33839463  0.34513517  0.61775982    -0.66200
Ni175      Ni  0.37061726  0.34121298  0.61184459     1.26300
O176        O  0.40967068  0.26994004  0.63266941    -0.66400
O177        O  0.37363994  0.39761421  0.61387597    -0.78700
C178        C  0.37681788  0.33403505  0.56977661     0.84700
O179        O  0.36320321  0.34783084  0.58307617    -0.65900
Ni180      Ni  0.36483968  0.35806779  0.66144617     1.27400
Ni181      Ni  0.37754616  0.27408478  0.63812369     1.26100
H182        H  0.35247045  0.27792157  0.60966361     0.39300
O183        O  0.38748030  0.80938961  0.57393893    -0.80700
O184        O  0.38543496  0.76641685  0.66670109    -0.65400
O185        O  0.36712873  0.78517235  0.61102060    -1.12000
C186        C  0.36800728  0.92059089  0.62997784     1.06200
O187        O  0.36274049  0.81240285  0.67969979    -0.78600
O188        O  0.33417641  0.84834844  0.65336586    -0.66100
Ni189      Ni  0.38231470  0.76048481  0.58861459     1.34900
C190        C  0.32530948  0.84642187  0.63563647     0.85000
O191        O  0.37473721  0.71791359  0.63529134    -0.79100
O192        O  0.37841900  0.70937539  0.60107946    -0.89400
C193        C  0.37604455  0.78328751  0.68191575     0.84500
O194        O  0.41225916  0.76410363  0.59884766    -0.67600
O195        O  0.36475964  0.90803717  0.64812689    -0.86900
C196        C  0.42082370  0.76772426  0.61659295     0.85400
C197        C  0.37591451  0.69604143  0.61926145     1.06900
H198        H  0.39460289  0.83910223  0.64075498     0.38700
O199        O  0.37891002  0.83149187  0.64007511    -1.09500
O200        O  0.33676270  0.84448859  0.61907866    -0.66200
Ni201      Ni  0.36869620  0.84156028  0.61248035     1.26300
O202        O  0.40907274  0.77192501  0.63277454    -0.66400
O203        O  0.37110074  0.89799733  0.61459122    -0.78700
C204        C  0.37286268  0.83581545  0.57010430     0.84700
O205        O  0.35992436  0.84838365  0.58418315    -0.65900
Ni206      Ni  0.36425259  0.85825225  0.66227486     1.27400
Ni207      Ni  0.37700117  0.77455120  0.63846724     1.26100
H208        H  0.35148035  0.77731124  0.61005823     0.39300
O209        O  0.88821086  0.05453156  0.57592225    -0.80700
O210        O  0.88686779  0.01277161  0.66831194    -0.65400
O211        O  0.86813073  0.03074918  0.61273503    -1.12000
C212        C  0.87270344  0.16652621  0.63160923     1.06200
O213        O  0.86312772  0.05814994  0.67999104    -0.78600
O214        O  0.83726486  0.10205576  0.65493730    -0.66100
Ni215      Ni  0.88241800  0.00556499  0.59017795     1.34900
C216        C  0.82767801  0.09684518  0.63769115     0.85000
O217        O  0.87570138  0.96366573  0.63700594    -0.79100
O218        O  0.87791079  0.95473656  0.60264653    -0.89400
C219        C  0.87667724  0.02972081  0.68309602     0.84500
O220        O  0.91252002  0.00663714  0.59996949    -0.67600
O221        O  0.87176747  0.15446095  0.65008797    -0.86900
C222        C  0.92151518  0.00993513  0.61754336     0.85400
C223        C  0.87620900  0.94165617  0.62096515     1.06900
H224        H  0.89671159  0.08401808  0.64132160     0.38700
O225        O  0.88090214  0.07707521  0.64121506    -1.09500
O226        O  0.83838287  0.09015267  0.62111187    -0.66200
Ni227      Ni  0.86999746  0.08714779  0.61394657     1.26300
O228        O  0.91029586  0.01636148  0.63385051    -0.66400
O229        O  0.87243657  0.14371596  0.61599899    -0.78700
C230        C  0.87355573  0.08075042  0.57186988     0.84700
O231        O  0.86063871  0.09371692  0.58584561    -0.65900
Ni232      Ni  0.86787249  0.10483244  0.66375091     1.27400
Ni233      Ni  0.87838284  0.02030455  0.63999975     1.26100
H234        H  0.85242875  0.02316092  0.61208886     0.39300
O235        O  0.88693421  0.55377490  0.57582667    -0.80700
O236        O  0.88311286  0.51229185  0.66720454    -0.65400
O237        O  0.86517380  0.53057439  0.61163719    -1.12000
C238        C  0.86980703  0.66610849  0.63128355     1.06200
O239        O  0.85823791  0.55595904  0.67841056    -0.78600
O240        O  0.83279502  0.59986603  0.65299585    -0.66100
Ni241      Ni  0.87981137  0.50488734  0.58943206     1.34900
C242        C  0.82396628  0.59556913  0.63536963     0.85000
O243        O  0.87192730  0.46328910  0.63588484    -0.79100
O244        O  0.87376458  0.45427092  0.60151901    -0.89400
C245        C  0.87273340  0.52915726  0.68185162     0.84500
O246        O  0.90983737  0.50395121  0.59977410    -0.67600
O247        O  0.86718087  0.65360107  0.64956836    -0.86900
C248        C  0.91849533  0.50845035  0.61741149     0.85400
C249        C  0.87178430  0.44132476  0.61983136     1.06900
H250        H  0.89301678  0.58355543  0.64125529     0.38700
O251        O  0.87723886  0.57652865  0.64053268    -1.09500
O252        O  0.83543214  0.59034025  0.61905704    -0.66200
Ni253      Ni  0.86739577  0.58701686  0.61302382     1.26300
O254        O  0.90688201  0.51595435  0.63337067    -0.66400
O255        O  0.87030647  0.64362703  0.61550229    -0.78700
C256        C  0.87268600  0.58028048  0.57111257     0.84700
O257        O  0.85934737  0.59396520  0.58458509    -0.65900
Ni258      Ni  0.86303838  0.60342580  0.66277676     1.27400
Ni259      Ni  0.87482364  0.51983398  0.63899059     1.26100
H260        H  0.84944043  0.52328459  0.61072252     0.39300
O261        O  0.88983954  0.42726622  0.92576693    -0.80700
O262        O  0.88715640  0.47136292  0.83430716    -0.65400
O263        O  0.86883922  0.44887398  0.88917154    -1.12000
C264        C  0.87065076  0.31441822  0.87121172     1.06200
O265        O  0.87242626  0.41806010  0.81900645    -0.78600
O266        O  0.83939781  0.39384292  0.84572369    -0.66100
Ni267      Ni  0.88243510  0.47569844  0.91177038     1.34900
C268        C  0.82983541  0.39027703  0.86311629     0.85000
O269        O  0.87394053  0.51681649  0.86528160    -0.79100
O270        O  0.87587958  0.52613037  0.89954636    -0.89400
C271        C  0.88147450  0.45212696  0.81837061     0.84500
O272        O  0.91276748  0.47783447  0.90218192    -0.67600
O273        O  0.86470639  0.32783522  0.85382099    -0.86900
C274        C  0.92178886  0.47432943  0.88465617     0.85400
C275        C  0.87341581  0.53887934  0.88124116     1.06900
H276        H  0.89907881  0.39794018  0.85990283     0.38700
O277        O  0.88311337  0.40387359  0.86044391    -1.09500
O278        O  0.84083767  0.38661325  0.87995714    -0.66200
Ni279      Ni  0.87248850  0.39284509  0.88784068     1.26300
O280        O  0.91050465  0.46732743  0.86840008    -0.66400
O281        O  0.87689734  0.33666367  0.88591222    -0.78700
C282        C  0.87567642  0.40038205  0.93010320     0.84700
O283        O  0.86330598  0.38556383  0.91607574    -0.65900
Ni284      Ni  0.86878688  0.37578261  0.83841049     1.27400
Ni285      Ni  0.87872193  0.46074691  0.86210905     1.26100
H286        H  0.85291568  0.45481978  0.88979980     0.39300
O287        O  0.88942738  0.92398083  0.92792565    -0.80700
O288        O  0.88678404  0.97081192  0.83631390    -0.65400
O289        O  0.86851841  0.94893666  0.89165913    -1.12000
C290        C  0.87171785  0.81430665  0.87078982     1.06200
O291        O  0.86372849  0.92534724  0.82339116    -0.78600
O292        O  0.83682674  0.88476973  0.84873259    -0.66100
Ni293      Ni  0.88280109  0.97349969  0.91453148     1.34900
C294        C  0.82776531  0.88711909  0.86633282     0.85000
O295        O  0.87518875  0.01774440  0.86845164    -0.79100
O296        O  0.87723306  0.02475894  0.90293436    -0.89400
C297        C  0.87718234  0.95419158  0.82105781     0.84500
O298        O  0.91289017  0.97456859  0.90459559    -0.67600
O299        O  0.86920877  0.82759269  0.85267321    -0.86900
C300        C  0.92165873  0.97154903  0.88695323     0.85400
C301        C  0.87517306  0.03884931  0.88483252     1.06900
H302        H  0.89682181  0.89762866  0.86165404     0.38700
O303        O  0.88102024  0.90446222  0.86225740    -1.09500
O304        O  0.83896612  0.88945023  0.88298965    -0.66200
Ni305      Ni  0.87076184  0.89264400  0.88961972     1.26300
O306        O  0.91024258  0.96518700  0.87069180    -0.66400
O307        O  0.87342247  0.83624716  0.88666497    -0.78700
C308        C  0.87475691  0.89777461  0.93195655     0.84700
O309        O  0.86204488  0.88444617  0.91782717    -0.65900
Ni310      Ni  0.86699160  0.87821686  0.83956026     1.27400
Ni311      Ni  0.87833135  0.96124422  0.86450010     1.26100
H312        H  0.85276331  0.95605502  0.89249358     0.39300
O313        O  0.11167701  0.06055766  0.92747142    -0.80700
O314        O  0.11096228  0.01598870  0.83609805    -0.65400
O315        O  0.13128900  0.03510962  0.89108655    -1.12000
C316        C  0.12884634  0.17010865  0.87022216     1.06200
O317        O  0.13700554  0.05706733  0.82441894    -0.78600
O318        O  0.16359194  0.10299574  0.84825112    -0.66100
Ni319      Ni  0.11738369  0.01076830  0.91403405     1.34900
C320        C  0.17298584  0.09861803  0.86562711     0.85000
O321        O  0.12174981  0.96758927  0.86766315    -0.79100
O322        O  0.12219181  0.95934450  0.90210687    -0.89400
C323        C  0.12209078  0.03073779  0.82125887     0.84500
O324        O  0.08693311  0.01087015  0.90479274    -0.67600
O325        O  0.12962537  0.15663365  0.85193339    -0.86900
C326        C  0.07745486  0.01617085  0.88755777     0.85400
C327        C  0.12275349  0.94591987  0.88375969     1.06900
H328        H  0.10360754  0.08901374  0.86203049     0.38700
O329        O  0.11921351  0.08084202  0.86227024    -1.09500
O330        O  0.16207313  0.09274825  0.88219149    -0.66200
Ni331      Ni  0.13038686  0.09165259  0.88932570     1.26300
O332        O  0.08836845  0.02304578  0.87110618    -0.66400
O333        O  0.12900743  0.14837867  0.88628319    -0.78700
C334        C  0.12672614  0.08611477  0.93159407     0.84700
O335        O  0.13966514  0.09894671  0.91753675    -0.65900
Ni336      Ni  0.13297159  0.10575242  0.83929941     1.27400
Ni337      Ni  0.12021534  0.02411888  0.86417965     1.26100
H338        H  0.14688673  0.02685477  0.89141122     0.39300
O339        O  0.11080360  0.55910412  0.92680456    -0.80700
O340        O  0.11241744  0.51444427  0.83594315    -0.65400
O341        O  0.13201849  0.53522560  0.89100439    -1.12000
C342        C  0.12559335  0.67042018  0.87129792     1.06200
O343        O  0.13529658  0.56038993  0.82336997    -0.78600
O344        O  0.16158163  0.60579932  0.84798725    -0.66100
Ni345      Ni  0.11838003  0.50985579  0.91378470     1.34900
C346        C  0.17146266  0.60248441  0.86524319     0.85000
O347        O  0.12478306  0.46669152  0.86762637    -0.79100
O348        O  0.12504745  0.45913257  0.90214333    -0.89400
C349        C  0.12179181  0.53154134  0.82076350     0.84500
O350        O  0.08807029  0.50656425  0.90418604    -0.67600
O351        O  0.12677958  0.65781976  0.85288320    -0.86900
C352        C  0.07866201  0.51123773  0.88686845     0.85400
C353        C  0.12616917  0.44539145  0.88389272     1.06900
H354        H  0.10257260  0.58650702  0.86231837     0.38700
O355        O  0.11844623  0.58010557  0.86236089    -1.09500
O356        O  0.16101524  0.59625036  0.88207303    -0.66200
Ni357      Ni  0.12936832  0.59158599  0.88952666     1.26300
O358        O  0.08962037  0.51918734  0.87060340    -0.66400
O359        O  0.12609151  0.64799378  0.88705003    -0.78700
C360        C  0.12526194  0.58521652  0.93160268     0.84700
O361        O  0.13829948  0.59922639  0.91790208    -0.65900
Ni362      Ni  0.13079153  0.60762019  0.83947968     1.27400
Ni363      Ni  0.12144549  0.52333480  0.86403780     1.26100
H364        H  0.14784579  0.52844496  0.89148650     0.39300
O365        O  0.10808197  0.42302267  0.57622173    -0.80700
O366        O  0.10939156  0.46661523  0.66820661    -0.65400
O367        O  0.12863121  0.44693308  0.61293073    -1.12000
C368        C  0.12575522  0.31197892  0.63295749     1.06200
O369        O  0.13376022  0.42307567  0.68078908    -0.78600
O370        O  0.16106472  0.38126696  0.65537106    -0.66100
Ni371      Ni  0.11450220  0.47210555  0.59019090     1.34900
C372        C  0.17007622  0.38312677  0.63770464     0.85000
O373        O  0.12052220  0.51464104  0.63673307    -0.79100
O374        O  0.11991916  0.52303149  0.60232783    -0.89400
C375        C  0.11975757  0.45113066  0.68333050     0.84500
O376        O  0.08421270  0.47240217  0.59982044    -0.67600
O377        O  0.12839792  0.32501640  0.65116569    -0.86900
C378        C  0.07494423  0.46733008  0.61714889     0.85400
C379        C  0.12121776  0.53633272  0.62064272     1.06900
H380        H  0.10071793  0.39376716  0.64244958     0.38700
O381        O  0.11641583  0.40138051  0.64189129    -1.09500
O382        O  0.15871669  0.38706562  0.62115610    -0.66200
Ni383      Ni  0.12675425  0.39052035  0.61448143     1.26300
O384        O  0.08611884  0.46037226  0.63350065    -0.66400
O385        O  0.12407781  0.33409073  0.61714946    -0.78700
C386        C  0.12257992  0.39660207  0.57199786     0.84700
O387        O  0.13535559  0.38307100  0.58604625    -0.65900
Ni388      Ni  0.13068575  0.37558156  0.66451525     1.27400
Ni389      Ni  0.11816611  0.45811579  0.64006039     1.26100
H390        H  0.14436344  0.45441700  0.61242196     0.39300
O391        O  0.10833649  0.92464219  0.57658790    -0.80700
O392        O  0.11281156  0.96798462  0.66864698    -0.65400
O393        O  0.12996494  0.94648281  0.61302388    -1.12000
C394        C  0.12261458  0.81152487  0.63187406     1.06200
O395        O  0.13224597  0.91809751  0.68216930    -0.78600
O396        O  0.15929027  0.87789770  0.65583648    -0.66100
Ni397      Ni  0.11546394  0.97292888  0.59080603     1.34900
C398        C  0.16860568  0.87971133  0.63828243     0.85000
O399        O  0.12565476  0.01447203  0.63730518    -0.79100
O400        O  0.12116512  0.02350767  0.60320143    -0.89400
C401        C  0.12089281  0.94974738  0.68405313     0.84500
O402        O  0.08554275  0.97246118  0.60102433    -0.67600
O403        O  0.12562318  0.82372425  0.65012439    -0.86900
C404        C  0.07721250  0.97003590  0.61883924     0.85400
C405        C  0.12461303  0.03647603  0.62134067     1.06900
H406        H  0.10005505  0.89672640  0.64227611     0.38700
O407        O  0.11607380  0.90191951  0.64190666    -1.09500
O408        O  0.15764994  0.88379814  0.62151330    -0.66200
Ni409      Ni  0.12607297  0.89039439  0.61433166     1.26300
O410        O  0.08902808  0.96528206  0.63493387    -0.66400
O411        O  0.12144760  0.83427716  0.61633496    -0.78700
C412        C  0.12223206  0.89757244  0.57199809     0.84700
O413        O  0.13471645  0.88263129  0.58587443    -0.65900
Ni414      Ni  0.12868661  0.87295821  0.66438200     1.27400
Ni415      Ni  0.12080803  0.95836971  0.64046727     1.26100
H416        H  0.14587367  0.95238649  0.61195690     0.39300
O417        O  0.36881102  0.16519810  0.17961942    -0.80700
O418        O  0.36559622  0.12891083  0.08372333    -0.65400
O419        O  0.38443909  0.14728588  0.13954255    -1.12000
C420        C  0.37608624  0.28206092  0.11850947     1.06200
O421        O  0.39248821  0.16997105  0.07431576    -0.78600
O422        O  0.41502037  0.22139210  0.09808118    -0.66100
Ni423      Ni  0.37041995  0.11979764  0.16180070     1.34900
C424        C  0.42397374  0.21739441  0.11562842     0.85000
O425        O  0.37812301  0.07996336  0.11404297    -0.79100
O426        O  0.37149228  0.07017560  0.14752807    -0.89400
C427        C  0.37820592  0.14329343  0.06987242     0.84500
O428        O  0.34012819  0.12890333  0.15306267    -0.67600
O429        O  0.37812596  0.26914976  0.10017372    -0.86900
C430        C  0.33115405  0.12923267  0.13532735     0.85400
C431        C  0.37535710  0.05747518  0.12950588     1.06900
H432        H  0.35518223  0.19863711  0.10991526     0.38700
O433        O  0.37105386  0.19232252  0.11062985    -1.09500
O434        O  0.41273725  0.20932266  0.13171878    -0.66200
Ni435      Ni  0.38091656  0.20394269  0.13781716     1.26300
O436        O  0.34252515  0.13061554  0.11872039    -0.66400
O437        O  0.37695204  0.26018560  0.13453398    -0.78700
C438        C  0.38076841  0.19627431  0.18128150     0.84700
O439        O  0.38945263  0.21340160  0.16583402    -0.65900
Ni440      Ni  0.38486968  0.21865324  0.08809383     1.27400
Ni441      Ni  0.37427496  0.13620118  0.11199141     1.26100
H442        H  0.40031587  0.14100070  0.14018755     0.39300
O443        O  0.36505683  0.66608307  0.18030295    -0.80700
O444        O  0.36257039  0.63015014  0.08486643    -0.65400
O445        O  0.38172217  0.64609879  0.14088763    -1.12000
C446        C  0.37788971  0.78170262  0.12034768     1.06200
O447        O  0.39078792  0.66866221  0.07594340    -0.78600
O448        O  0.41453120  0.71818304  0.09993309    -0.66100
Ni449      Ni  0.36741678  0.61950940  0.16322025     1.34900
C450        C  0.42341887  0.71334540  0.11744732     0.85000
O451        O  0.37335709  0.57968926  0.11534537    -0.79100
O452        O  0.36912167  0.56954787  0.14923369    -0.89400
C453        C  0.37559103  0.64388551  0.07111182     0.84500
O454        O  0.33706530  0.62682960  0.15413240    -0.67600
O455        O  0.37914707  0.76856035  0.10200218    -0.86900
C456        C  0.32807215  0.62956400  0.13645867     0.85400
C457        C  0.37150275  0.55707522  0.13091285     1.06900
H458        H  0.35419643  0.70050842  0.11154090     0.38700
O459        O  0.36985710  0.69267849  0.11221880    -1.09500
O460        O  0.41208106  0.70541284  0.13349763    -0.66200
Ni461      Ni  0.38009608  0.70299329  0.13948769     1.26300
O462        O  0.33941074  0.63332618  0.11993267    -0.66400
O463        O  0.37813067  0.75978954  0.13641034    -0.78700
C464        C  0.37882414  0.69461288  0.18277330     0.84700
O465        O  0.38881812  0.71067811  0.16765570    -0.65900
Ni466      Ni  0.38445752  0.71780984  0.08978811     1.27400
Ni467      Ni  0.37129766  0.63624923  0.11332290     1.26100
H468        H  0.39740051  0.63839339  0.14140318     0.39300
O469        O  0.36471342  0.31530833  0.31881998    -0.80700
O470        O  0.36517882  0.35510747  0.41476629    -0.65400
O471        O  0.38179847  0.33531167  0.35819737    -1.12000
C472        C  0.37532043  0.20057421  0.38005715     1.06200
O473        O  0.39239677  0.31394287  0.42296126    -0.78600
O474        O  0.41390478  0.26253877  0.39930943    -0.66100
Ni475      Ni  0.36705154  0.36157175  0.33594717     1.34900
C476        C  0.42258713  0.26691614  0.38171543     0.85000
O477        O  0.37594794  0.40343984  0.38314784    -0.79100
O478        O  0.36847272  0.41167310  0.34962844    -0.89400
C479        C  0.37847906  0.34056857  0.42817199     0.84500
O480        O  0.33728035  0.35254178  0.34560065    -0.67600
O481        O  0.37736032  0.21402817  0.39829849    -0.86900
C482        C  0.32868113  0.35257994  0.36345002     0.85400
C483        C  0.37273989  0.42522241  0.36743475     1.06900
H484        H  0.35379368  0.28410678  0.38864959     0.38700
O485        O  0.36961088  0.29071236  0.38761709    -1.09500
O486        O  0.41099659  0.27434667  0.36572397    -0.66200
Ni487      Ni  0.37888674  0.27859873  0.36027549     1.26300
O488        O  0.34039140  0.35190661  0.37994263    -0.66400
O489        O  0.37552737  0.22218618  0.36390866    -0.78700
C490        C  0.37760836  0.28558831  0.31681968     0.84700
O491        O  0.38691165  0.26900207  0.33214922    -0.65900
Ni492      Ni  0.38417340  0.26494032  0.40990718     1.27400
Ni493      Ni  0.37249384  0.34708008  0.38594613     1.26100
H494        H  0.39759521  0.34201010  0.35714836     0.39300
O495        O  0.36792860  0.81575368  0.31942718    -0.80700
O496        O  0.36258314  0.85376095  0.41552839    -0.65400
O497        O  0.38239473  0.83547790  0.35984793    -1.12000
C498        C  0.37764907  0.70046125  0.38096145     1.06200
O499        O  0.38943454  0.81363441  0.42610120    -0.78600
O500        O  0.41407640  0.76591408  0.40240373    -0.66100
Ni501      Ni  0.36766850  0.86137223  0.33734186     1.34900
C502        C  0.42325378  0.76958150  0.38496017     0.85000
O503        O  0.37489025  0.90251404  0.38486602    -0.79100
O504        O  0.36698861  0.91137233  0.35150711    -0.89400
C505        C  0.37499749  0.84036910  0.42985692     0.84500
O506        O  0.33763786  0.84889279  0.34582117    -0.67600
O507        O  0.37921072  0.71395470  0.39922339    -0.86900
C508        C  0.32851149  0.84886511  0.36348793     0.85400
C509        C  0.37136446  0.92462113  0.36937023     1.06900
H510        H  0.35386576  0.78251798  0.38925215     0.38700
O511        O  0.36960128  0.78992230  0.38879096    -1.09500
O512        O  0.41210053  0.77555815  0.36852268    -0.66200
Ni513      Ni  0.38025589  0.77866482  0.36171232     1.26300
O514        O  0.33985769  0.84975210  0.38017419    -0.66400
O515        O  0.37758201  0.72212987  0.36488366    -0.78700
C516        C  0.38075968  0.78569446  0.31815857     0.84700
O517        O  0.38959168  0.76969267  0.33388436    -0.53100
Ni518      Ni  0.38370591  0.76483390  0.41164477     1.27400
Ni519      Ni  0.37174109  0.84623407  0.38726551     1.26100
H520        H  0.39810256  0.84302008  0.35927924     0.39300
O521        O  0.63001973  0.32085625  0.18139779    -0.80700
O522        O  0.63811168  0.35385887  0.08422010    -0.65400
O523        O  0.61875367  0.33615770  0.14007375    -1.12000
C524        C  0.62676090  0.20038726  0.11921837     1.06200
O525        O  0.61150602  0.31223482  0.07464720    -0.78600
O526        O  0.58867786  0.26170771  0.09810213    -0.66100
Ni527      Ni  0.63385132  0.36329842  0.16200051     1.34900
C528        C  0.57932195  0.26662127  0.11539484     0.85000
O529        O  0.62567992  0.40309940  0.11462010    -0.79100
O530        O  0.63847373  0.41117643  0.14659203    -0.89400
C531        C  0.62545897  0.33947014  0.07029327     0.84500
O532        O  0.66274687  0.34404204  0.15414587    -0.67600
O533        O  0.62537679  0.21327905  0.10084272    -0.86900
C534        C  0.67208691  0.34748607  0.13665259     0.85400
C535        C  0.63276760  0.42491922  0.12919517     1.06900
H536        H  0.64815356  0.28407972  0.11089667     0.38700
O537        O  0.63228910  0.29051275  0.11132812    -1.09500
O538        O  0.59027151  0.27443843  0.13173729    -0.66200
Ni539      Ni  0.62205789  0.27907325  0.13837138     1.26300
O540        O  0.66096084  0.35166657  0.11995740    -0.66400
O541        O  0.62570381  0.22253910  0.13516127    -0.78700
C542        C  0.61991068  0.28768778  0.18219453     0.84700
O543        O  0.61329022  0.26919783  0.16626583    -0.65900
Ni544      Ni  0.61895889  0.26380621  0.08861980     1.27400
Ni545      Ni  0.62921713  0.34672555  0.11256645     1.26100
H546        H  0.60295684  0.34298149  0.14079294     0.39300
O547        O  0.63006098  0.81588192  0.18061852    -0.80700
O548        O  0.63551888  0.85597877  0.08432059    -0.65400
O549        O  0.61645733  0.83280020  0.13978272    -1.12000
C550        C  0.62745443  0.69984377  0.11644712     1.06200
O551        O  0.60931311  0.81421419  0.07419090    -0.78600
O552        O  0.58702275  0.76323517  0.09736132    -0.66100
Ni553      Ni  0.62933520  0.86099677  0.16255891     1.34900
C554        C  0.57847996  0.76387263  0.11515218     0.85000
O555        O  0.62178611  0.90212449  0.11522781    -0.79100
O556        O  0.62893295  0.91111192  0.14861030    -0.89400
C557        C  0.62298385  0.84204210  0.07020784     0.84500
O558        O  0.65981538  0.85179526  0.15449100    -0.67600
O559        O  0.62353169  0.71402006  0.09863585    -0.86900
C560        C  0.66915395  0.85331059  0.13691093     0.85400
C561        C  0.62499429  0.92435363  0.13072551     1.06900
H562        H  0.64696886  0.78517488  0.10904866     0.38700
O563        O  0.63101068  0.79050298  0.11015095    -1.09500
O564        O  0.59015645  0.76819513  0.13140057    -0.66200
Ni565      Ni  0.62191767  0.77634742  0.13723178     1.26300
O566        O  0.65814993  0.85308151  0.12002732    -0.66400
O567        O  0.62783803  0.72063951  0.13290831    -0.78700
C568        C  0.62055894  0.78215016  0.18118827     0.84700
O569        O  0.61406011  0.76397120  0.16512638    -0.65900
Ni570      Ni  0.61701380  0.76516118  0.08732844     1.27400
Ni571      Ni  0.62666595  0.84626058  0.11246772     1.26100
H572        H  0.60039592  0.83746481  0.14025347     0.39300
O573        O  0.63452122  0.16577306  0.31964897    -0.80700
O574        O  0.63687946  0.13147958  0.41575025    -0.65400
O575        O  0.61788102  0.14844456  0.35962353    -1.12000
C576        C  0.62503948  0.28363428  0.37941293     1.06200
O577        O  0.60996661  0.17254078  0.42515631    -0.78600
O578        O  0.58642842  0.22074512  0.40023529    -0.66100
Ni579      Ni  0.63130179  0.12030888  0.33727599     1.34900
C580        C  0.57787691  0.21750922  0.38245781     0.85000
O581        O  0.62446275  0.08173780  0.38535491    -0.79100
O582        O  0.62840807  0.07104623  0.35150742    -0.89400
C583        C  0.62425934  0.14589190  0.42965918     0.84500
O584        O  0.66181809  0.12660202  0.34615828    -0.67600
O585        O  0.62223491  0.27111513  0.39772608    -0.86900
C586        C  0.67110087  0.12967164  0.36371533     0.85400
C587        C  0.62532340  0.05896565  0.36976057     1.06900
H588        H  0.64685961  0.20110338  0.38917710     0.38700
O589        O  0.63104428  0.19434233  0.38828332    -1.09500
O590        O  0.58952396  0.21065146  0.36647483    -0.66200
Ni591      Ni  0.62140470  0.20498755  0.36081109     1.26300
O592        O  0.65998274  0.13332669  0.38038536    -0.66400
O593        O  0.62537578  0.26129564  0.36354145    -0.78700
C594        C  0.62191439  0.19585521  0.31738969     0.84700
O595        O  0.61292853  0.21321238  0.33263645    -0.65900
Ni596      Ni  0.61656721  0.22080465  0.41046011     1.27400
Ni597      Ni  0.62817478  0.13810920  0.38724683     1.26100
H598        H  0.60198186  0.14220694  0.35918739     0.39300
O599        O  0.63746018  0.66982673  0.32067889    -0.80700
O600        O  0.63623091  0.63072853  0.41567211    -0.65400
O601        O  0.61933066  0.64816331  0.35908798    -1.12000
C602        C  0.62448508  0.78384985  0.37958113     1.06200
O603        O  0.60959982  0.67293158  0.42438396    -0.78600
O604        O  0.58756509  0.72423840  0.40036445    -0.66100
Ni605      Ni  0.63466064  0.62258472  0.33703205     1.34900
C606        C  0.57822262  0.71762284  0.38318580     0.85000
O607        O  0.62613750  0.58126382  0.38422083    -0.79100
O608        O  0.63272562  0.57218567  0.35050563    -0.89400
C609        C  0.62325319  0.64555557  0.42920914     0.84500
O610        O  0.66443525  0.63101151  0.34716291    -0.67600
O611        O  0.62454648  0.77101902  0.39800379    -0.86900
C612        C  0.67274766  0.63275930  0.36511719     0.85400
C613        C  0.62896599  0.55912448  0.36851251     1.06900
H614        H  0.64694120  0.70135915  0.38844141     0.38700
O615        O  0.63114708  0.69431028  0.38797614    -1.09500
O616        O  0.58908256  0.70730955  0.36717965    -0.66200
Ni617      Ni  0.62094554  0.70491494  0.36068038     1.26300
O618        O  0.66083066  0.63423850  0.38136057    -0.66400
O619        O  0.62291406  0.76170133  0.36366571    -0.78700
C620        C  0.62286963  0.69666982  0.31756735     0.84700
O621        O  0.61214043  0.71233573  0.33241725    -0.65900
Ni622      Ni  0.61764710  0.72107153  0.41039731     1.27400
Ni623      Ni  0.62877802  0.63779480  0.38685343     1.26100
H624        H  0.60368818  0.64040179  0.35798512     0.39300
O625        O  0.86658418  0.06317554  0.32222387    -0.80700
O626        O  0.86243116  0.09650537  0.41810835    -0.65400
O627        O  0.88176914  0.08085479  0.36232256    -1.12000
C628        C  0.87634312  0.94478088  0.38191636     1.06200
O629        O  0.88927970  0.05561243  0.42773141    -0.78600
O630        O  0.91267165  0.00650236  0.40392929    -0.66100
Ni631      Ni  0.86703008  0.10802084  0.34036593     1.34900
C632        C  0.92214360  0.01237559  0.38678822     0.85000
O633        O  0.87483807  0.14664332  0.38840360    -0.79100
O634        O  0.86668504  0.15700388  0.35522346    -0.89400
C635        C  0.87522906  0.08268174  0.43197067     0.84500
O636        O  0.83700044  0.09613979  0.34873448    -0.67600
O637        O  0.87664886  0.95744765  0.40037071    -0.86900
C638        C  0.82804800  0.09609252  0.36642472     0.85400
C639        C  0.87100053  0.16938864  0.37324018     1.06900
H640        H  0.85298260  0.02697642  0.39068337     0.38700
O641        O  0.86878740  0.03399089  0.39050099    -1.09500
O642        O  0.91136283  0.02084873  0.37044920    -0.66200
Ni643      Ni  0.87965765  0.02394450  0.36338584     1.26300
O644        O  0.83950202  0.09535804  0.38304342    -0.66400
O645        O  0.87736526  0.96709637  0.36603980    -0.78700
C646        C  0.87980160  0.03393341  0.32003155     0.84700
O647        O  0.88902341  0.01671883  0.33528533    -0.65900
Ni648      Ni  0.88231803  0.00751071  0.41315451     1.27400
Ni649      Ni  0.87134962  0.09031898  0.38986024     1.26100
H650        H  0.89747304  0.08840652  0.36178024     0.39300
O651        O  0.86519677  0.56117735  0.32209421    -0.80700
O652        O  0.86261538  0.59752669  0.41685828    -0.65400
O653        O  0.88226180  0.57955014  0.36141709    -1.12000
C654        C  0.87524682  0.44475735  0.38222975     1.06200
O655        O  0.88994549  0.55763784  0.42638206    -0.78600
O656        O  0.91315455  0.50743361  0.40282560    -0.66100
Ni657      Ni  0.86913868  0.60746644  0.33890654     1.34900
C658        C  0.92197654  0.51055630  0.38522788     0.85000
O659        O  0.87527901  0.64678102  0.38674285    -0.79100
O660        O  0.87247520  0.65716617  0.35277411    -0.89400
C661        C  0.87530168  0.58358275  0.43077528     0.84500
O662        O  0.83857410  0.60299112  0.34758771    -0.67600
O663        O  0.87733702  0.45805730  0.40047790    -0.86900
C664        C  0.82918602  0.59982849  0.36502788     0.85400
C665        C  0.87480115  0.66944629  0.37112353     1.06900
H666        H  0.85305778  0.52739097  0.39073324     0.38700
O667        O  0.86887213  0.53418299  0.39003696    -1.09500
O668        O  0.91066058  0.51761889  0.36902760    -0.66200
Ni669      Ni  0.87884764  0.52288007  0.36285033     1.26300
O670        O  0.84009787  0.59512312  0.38171012    -0.66400
O671        O  0.87515363  0.46640703  0.36606506    -0.78700
C672        C  0.87834732  0.53194404  0.31959607     0.84700
O673        O  0.88749678  0.51439362  0.33473807    -0.65900
Ni674      Ni  0.88304590  0.50868602  0.41262434     1.27400
Ni675      Ni  0.87172609  0.59041551  0.38875741     1.26100
H676        H  0.89815646  0.58582392  0.36116587     0.39300
O677        O  0.86423284  0.42367899  0.18021239    -0.80700
O678        O  0.86339023  0.38464597  0.08498413    -0.65400
O679        O  0.88136348  0.40296067  0.14120673    -1.12000
C680        C  0.87550563  0.53795609  0.11952396     1.06200
O681        O  0.89139540  0.42413543  0.07676990    -0.78600
O682        O  0.91387602  0.47564585  0.10014014    -0.66100
Ni683      Ni  0.86701434  0.37669442  0.16358446     1.34900
C684        C  0.92257531  0.47047502  0.11769261     0.85000
O685        O  0.87388621  0.33513088  0.11615219    -0.79100
O686        O  0.86905498  0.32631291  0.15004917    -0.89400
C687        C  0.87670414  0.39872074  0.07154119     0.84500
O688        O  0.83685034  0.38362669  0.15411216    -0.67600
O689        O  0.87744490  0.52435040  0.10130515    -0.86900
C690        C  0.82809949  0.38557224  0.13632296     0.85400
C691        C  0.87186629  0.31302191  0.13192214     1.06900
H692        H  0.85362875  0.45552258  0.11115167     0.38700
O693        O  0.86935840  0.44826414  0.11207268    -1.09500
O694        O  0.91103225  0.46279391  0.13362811    -0.66200
Ni695      Ni  0.87904957  0.45982818  0.13931447     1.26300
O696        O  0.83957494  0.38850151  0.11984907    -0.66400
O697        O  0.87619595  0.51651316  0.13574692    -0.78700
C698        C  0.87785586  0.45240476  0.18257677     0.84700
O699        O  0.88752025  0.46880836  0.16741007    -0.65900
Ni700      Ni  0.88393857  0.47349219  0.08971348     1.27400
Ni701      Ni  0.87145393  0.39182566  0.11359665     1.26100
H702        H  0.89711104  0.39580000  0.14199038     0.39300
O703        O  0.86172786  0.92540507  0.18075895    -0.80700
O704        O  0.86221533  0.88288735  0.08602337    -0.65400
O705        O  0.87919644  0.90284029  0.14217125    -1.12000
C706        C  0.87613433  0.03703850  0.11848406     1.06200
O707        O  0.89115352  0.92002039  0.07741599    -0.78600
O708        O  0.91400562  0.97207579  0.10081256    -0.66100
Ni709      Ni  0.86340027  0.87814391  0.16432794     1.34900
C710        C  0.92222649  0.96864075  0.11869701     0.85000
O711        O  0.87139418  0.83458543  0.11766524    -0.79100
O712        O  0.86398786  0.82719194  0.15119130    -0.89400
C713        C  0.87605859  0.89498217  0.07256490     0.84500
O714        O  0.83382845  0.88835515  0.15423337    -0.67600
O715        O  0.87825018  0.02249651  0.10045087    -0.86900
C716        C  0.82554354  0.88961541  0.13625957     0.85400
C717        C  0.86775579  0.81314414  0.13338865     1.06900
H718        H  0.85318666  0.95540683  0.11077973     0.38700
O719        O  0.86876275  0.94737650  0.11214865    -1.09500
O720        O  0.91020256  0.96178545  0.13449277    -0.66200
Ni721      Ni  0.87789754  0.95977270  0.13944541     1.26300
O722        O  0.83753849  0.88977948  0.12000417    -0.66400
O723        O  0.87606262  0.01630020  0.13497646    -0.78700
C724        C  0.87545219  0.95400119  0.18290814     0.84700
O725        O  0.88550212  0.96967591  0.16770547    -0.65900
Ni726      Ni  0.88428049  0.97054959  0.08969793     1.27400
Ni727      Ni  0.86977885  0.89106105  0.11450525     1.26100
H728        H  0.89478773  0.89492252  0.14345137     0.39300
O729        O  0.13575657  0.06714154  0.18183977    -0.80700
O730        O  0.13936069  0.09951031  0.08563619    -0.65400
O731        O  0.12033813  0.08471774  0.14164370    -1.12000
C732        C  0.12338494  0.94877826  0.12101329     1.06200
O733        O  0.11038584  0.06239136  0.07709341    -0.78600
O734        O  0.08677544  0.01326883  0.10107160    -0.66100
Ni735      Ni  0.13491600  0.11208441  0.16371254     1.34900
C736        C  0.07795958  0.01807937  0.11860580     0.85000
O737        O  0.12893793  0.15043780  0.11550236    -0.79100
O738        O  0.13469890  0.16125371  0.14905002    -0.89400
C739        C  0.12549580  0.08724376  0.07218215     0.84500
O740        O  0.16500622  0.10121211  0.15510057    -0.67600
O741        O  0.12187847  0.96220857  0.10273942    -0.86900
C742        C  0.17409333  0.09832116  0.13748884     0.85400
C743        C  0.13167538  0.17337180  0.13079027     1.06900
H744        H  0.14736861  0.02936541  0.11225564     0.38700
O745        O  0.13178918  0.03758793  0.11305140    -1.09500
O746        O  0.08954647  0.02536910  0.13467087    -0.66200
Ni747      Ni  0.12179518  0.02759919  0.14033881     1.26300
O748        O  0.16277714  0.09608603  0.12080796    -0.66400
O749        O  0.12357822  0.97058684  0.13717071    -0.78700
C750        C  0.12306634  0.03704876  0.18382750     0.84700
O751        O  0.11365966  0.02005825  0.16859662    -0.65900
Ni752      Ni  0.11669858  0.01304315  0.09070931     1.27400
Ni753      Ni  0.13077976  0.09391183  0.11402067     1.26100
H754        H  0.10468942  0.09258835  0.14210157     0.39300
O755        O  0.13382971  0.56239831  0.18202153    -0.80700
O756        O  0.13571171  0.60304319  0.08661446    -0.65400
O757        O  0.11756207  0.58255721  0.14253740    -1.12000
C758        C  0.12677061  0.44842929  0.12011951     1.06200
O759        O  0.10893977  0.56119783  0.07801282    -0.78600
O760        O  0.08803559  0.50631940  0.10024709    -0.66100
Ni761      Ni  0.13134913  0.60910307  0.16521300     1.34900
C762        C  0.07853419  0.51141276  0.11744506     0.85000
O763        O  0.12365180  0.65108164  0.11794054    -0.79100
O764        O  0.12937468  0.65943808  0.15175088    -0.89400
C765        C  0.12280727  0.58808628  0.07301657     0.84500
O766        O  0.16168605  0.60192909  0.15624191    -0.67600
O767        O  0.12608984  0.46205931  0.10185942    -0.86900
C768        C  0.17076495  0.60121199  0.13856762     0.85400
C769        C  0.12576988  0.67294528  0.13381038     1.06900
H770        H  0.14702244  0.53250008  0.11294818     0.38700
O771        O  0.13111021  0.53855732  0.11340529    -1.09500
O772        O  0.08921190  0.52111134  0.13364069    -0.66200
Ni773      Ni  0.12092486  0.52593355  0.14028590     1.26300
O774        O  0.15945691  0.60003663  0.12187142    -0.66400
O775        O  0.12464293  0.46963167  0.13635053    -0.78700
C776        C  0.12097664  0.53244814  0.18369872     0.84700
O777        O  0.11200535  0.51589000  0.16815037    -0.65900
Ni778      Ni  0.11803021  0.51239110  0.09053577     1.27400
Ni779      Ni  0.12761816  0.59476500  0.11513171     1.26100
H780        H  0.10168666  0.58883154  0.14318340     0.39300
O781        O  0.13659356  0.42374764  0.32354195    -0.80700
O782        O  0.13826753  0.38058915  0.41704694    -0.65400
O783        O  0.11857401  0.40048083  0.36152949    -1.12000
C784        C  0.12332098  0.53491349  0.38393594     1.06200
O785        O  0.11074984  0.41970243  0.42719213    -0.78600
O786        O  0.08645031  0.46891748  0.40411213    -0.66100
Ni787      Ni  0.13237615  0.37536864  0.33854720     1.34900
C788        C  0.07731608  0.46471633  0.38663775     0.85000
O789        O  0.12761407  0.33216481  0.38534469    -0.79100
O790        O  0.12897269  0.32444626  0.35101010    -0.89400
C791        C  0.12547181  0.39357029  0.43119899     0.84500
O792        O  0.16284134  0.37887435  0.34781349    -0.67600
O793        O  0.12174026  0.52088017  0.40209225    -0.86900
C794        C  0.17201424  0.38299540  0.36531670     0.85400
C795        C  0.12786845  0.31068406  0.36918200     1.06900
H796        H  0.14642904  0.45309755  0.39149259     0.38700
O797        O  0.13076349  0.44525970  0.39083744    -1.09500
O798        O  0.08850365  0.45927543  0.37021583    -0.66200
Ni799      Ni  0.12037979  0.45720945  0.36375639     1.26300
O800        O  0.16094469  0.38750773  0.38188329    -0.66400
O801        O  0.12275853  0.51376134  0.36760217    -0.78700
C802        C  0.12212948  0.45081371  0.32059794     0.84700
O803        O  0.11152031  0.46621365  0.33559055    -0.65900
Ni804      Ni  0.11670185  0.46941356  0.41377793     1.27400
Ni805      Ni  0.12929070  0.38879618  0.38873097     1.26100
H806        H  0.10286659  0.39289551  0.36106390     0.39300
O807        O  0.13581935  0.92151336  0.32262278    -0.80700
O808        O  0.13662376  0.88188032  0.41703468    -0.65400
O809        O  0.11808892  0.90047820  0.36115389    -1.12000
C810        C  0.12552124  0.03553697  0.38239724     1.06200
O811        O  0.10958566  0.92301692  0.42608184    -0.78600
O812        O  0.08727284  0.97537300  0.40293262    -0.66100
Ni813      Ni  0.13174530  0.87400755  0.33853793     1.34900
C814        C  0.07792405  0.96958309  0.38568746     0.85000
O815        O  0.12550563  0.83259142  0.38585780    -0.79100
O816        O  0.12840243  0.82362280  0.35172107    -0.89400
C817        C  0.12367664  0.89620289  0.43072737     0.84500
O818        O  0.16225205  0.87775881  0.34775942    -0.67600
O819        O  0.12454811  0.02221244  0.40072960    -0.86900
C820        C  0.17138431  0.88054981  0.36536697     0.85400
C821        C  0.12641752  0.81045928  0.36995919     1.06900
H822        H  0.14674452  0.95255303  0.39050030     0.38700
O823        O  0.13092725  0.94570530  0.39001752    -1.09500
O824        O  0.08882912  0.96058438  0.36952301    -0.66200
Ni825      Ni  0.12062114  0.95722861  0.36295926     1.26300
O826        O  0.16020270  0.88531530  0.38191645    -0.66400
O827        O  0.12365711  0.01390868  0.36630485    -0.78700
C828        C  0.12214811  0.95000169  0.31991450     0.84700
O829        O  0.11178539  0.96585248  0.33489262    -0.65900
Ni830      Ni  0.11748416  0.97183244  0.41267702     1.27400
Ni831      Ni  0.12836270  0.88926385  0.38853079     1.26100
H832        H  0.10228802  0.89353066  0.36061928     0.39300
C833        C  0.12664094  0.63470184  0.36906768     0.30000
C834        C  0.12639862  0.66680803  0.35544050    -0.36400
C835        C  0.12632861  0.70458022  0.36445007     0.16000
C836        C  0.12663204  0.71062842  0.38541993     0.21800
C837        C  0.12710365  0.67847036  0.39907166    -0.34500
C838        C  0.12702977  0.64062361  0.39005093     0.15900
O839        O  0.12575189  0.59682243  0.36400156    -0.26500
C840        C  0.12556834  0.57820014  0.38199136     0.05700
C841        C  0.12643515  0.60398784  0.39870617    -0.31400
O842        O  0.12630497  0.74864505  0.39039732    -0.23200
C843        C  0.12574081  0.76706077  0.37232975    -0.03200
C844        C  0.12576532  0.74104731  0.35571484    -0.17600
H845        H  0.12592901  0.66264499  0.33896194     0.20400
H846        H  0.12720104  0.68262871  0.41555438     0.18700
H847        H  0.12606386  0.59677202  0.41489606     0.18700
H848        H  0.12557514  0.74806443  0.33949680     0.14500
C849        C  0.13016975  0.21075817  0.38373998     0.30000
C850        C  0.13247016  0.17847067  0.39709052    -0.36400
C851        C  0.13132017  0.14083582  0.38797470     0.16000
C852        C  0.12823758  0.13515442  0.36715290     0.21800
C853        C  0.12621934  0.16746746  0.35376002    -0.34500
C854        C  0.12724012  0.20510301  0.36289849     0.15900
O855        O  0.13031716  0.24859064  0.38896143    -0.26500
C856        C  0.12744881  0.26734029  0.37119750     0.05700
C857        C  0.12547750  0.24175314  0.35449683    -0.31400
O858        O  0.12646541  0.09731530  0.36215658    -0.23200
C859        C  0.12844976  0.07859605  0.38004508    -0.03200
C860        C  0.13161914  0.10422542  0.39657325    -0.17600
H861        H  0.13459619  0.18238296  0.41347967     0.20400
H862        H  0.12357791  0.16356240  0.33743101     0.18700
H863        H  0.12323004  0.24916560  0.33845182     0.18700
H864        H  0.13307525  0.09695114  0.41270802     0.14500
C865        C  0.11894310  0.46189019  0.26704952     0.30000
C866        C  0.12134809  0.44975848  0.24648629    -0.36400
C867        C  0.11804826  0.47910881  0.23150486     0.16000
C868        C  0.11318654  0.51791594  0.23651819     0.21800
C869        C  0.11025712  0.52983331  0.25706706    -0.34500
C870        C  0.11315818  0.50030362  0.27204041     0.15900
O871        O  0.12250729  0.43982375  0.28343213    -0.26500
C872        C  0.11858277  0.46405054  0.29921185     0.05700
C873        C  0.11250628  0.50210202  0.29305853    -0.31400
O874        O  0.11292090  0.54125698  0.22028127    -0.23200
C875        C  0.11712016  0.51703643  0.20456800    -0.03200
C876        C  0.12029668  0.47787101  0.21059328    -0.17600
H877        H  0.12603494  0.41973189  0.24247987     0.20400
H878        H  0.10657094  0.56026692  0.26111767     0.18700
H879        H  0.10913248  0.52766112  0.30262986     0.18700
H880        H  0.12502764  0.45282550  0.20113502     0.14500
C881        C  0.12481790  0.84867663  0.13578148     0.30000
C882        C  0.12556347  0.81630469  0.14923761    -0.36400
C883        C  0.12462184  0.77867469  0.14006143     0.16000
C884        C  0.12296016  0.77302776  0.11910739     0.21800
C885        C  0.12214990  0.80540757  0.10564893    -0.34500
C886        C  0.12322020  0.84303753  0.11482281     0.15900
O887        O  0.12544281  0.88655892  0.14097495    -0.26500
C888        C  0.12434250  0.90536507  0.12305761     0.05700
C889        C  0.12293168  0.87971538  0.10631623    -0.31400
O890        O  0.12275699  0.73513283  0.11390616    -0.23200
C891        C  0.12434128  0.71634106  0.13180630    -0.03200
C892        C  0.12550530  0.74200263  0.14854797    -0.17600
H893        H  0.12691604  0.82015187  0.16569704     0.20400
H894        H  0.12094645  0.80156337  0.08917914     0.18700
H895        H  0.12156705  0.88710102  0.09018654     0.18700
H896        H  0.12713722  0.73463986  0.16465913     0.14500
C897        C  0.13063401  0.27619336  0.13585480     0.30000
C898        C  0.12981081  0.31191224  0.14677236    -0.36400
C899        C  0.13011050  0.34640255  0.13493096     0.16000
C900        C  0.13114562  0.34580428  0.11376178     0.21800
C901        C  0.13189943  0.30993961  0.10277957    -0.34500
C902        C  0.13153882  0.27529728  0.11467539     0.15900
O903        O  0.13054882  0.24063757  0.14400041    -0.26500
C904        C  0.13126295  0.21641376  0.12792350     0.05700
C905        C  0.13187255  0.23620796  0.10917931    -0.31400
O906        O  0.13070398  0.38168321  0.10583745    -0.23200
C907        C  0.12942839  0.40543214  0.12215294    -0.03200
C908        C  0.12899497  0.38511561  0.14067599    -0.17600
H909        H  0.12888078  0.31271082  0.16336491     0.20400
H910        H  0.13253954  0.30913170  0.08617440     0.18700
H911        H  0.13263842  0.22368714  0.09388265     0.18700
H912        H  0.12746126  0.39707077  0.15604498     0.14500
C913        C  0.11639494  0.02206245  0.23679306     0.30000
C914        C  0.11369914  0.03334262  0.25747342    -0.36400
C915        C  0.11544127  0.00282516  0.27207464     0.16000
C916        C  0.11998541  0.96411750  0.26661519     0.21800
C917        C  0.12219183  0.95273506  0.24595477    -0.34500
C918        C  0.11999723  0.98303534  0.23136177     0.15900
O919        O  0.11660931  0.04594155  0.22075414    -0.26500
C920        C  0.11982552  0.02179933  0.20479946     0.05700
C921        C  0.12194177  0.98225822  0.21045702    -0.31400
O922        O  0.12256345  0.94085685  0.28268151    -0.23200
C923        C  0.11924975  0.96461712  0.29873573    -0.03200
C924        C  0.11453433  0.00356829  0.29309358    -0.17600
H925        H  0.11088604  0.06388244  0.26188482     0.20400
H926        H  0.12580661  0.92243582  0.24158930     0.18700
H927        H  0.12554235  0.95703978  0.20071203     0.18700
H928        H  0.11188203  0.02891391  0.30300457     0.14500
C929        C  0.97990815  0.98570253  0.11090650     0.30000
C930        C  0.99905134  0.99230033  0.09887355    -0.36400
C931        C  0.01894340  0.00121159  0.10948048     0.16000
C932        C  0.02023595  0.00358029  0.13058911     0.21800
C933        C  0.00085915  0.99704403  0.14276405    -0.34500
C934        C  0.98073296  0.98790991  0.13205381     0.15900
O935        O  0.95961826  0.97761426  0.10383520    -0.26500
C936        C  0.94692277  0.97418857  0.12054251     0.05700
C937        C  0.95915699  0.98027494  0.13866054    -0.31400
O938        O  0.04109097  0.01113845  0.13705808    -0.23200
C939        C  0.05308273  0.01367234  0.11973078    -0.03200
C940        C  0.04000514  0.00781089  0.10223831    -0.17600
H941        H  0.99848541  0.99046769  0.08228380     0.20400
H942        H  0.00145154  0.99867228  0.15935309     0.18700
H943        H  0.95294226  0.98030234  0.15427453     0.18700
H944        H  0.04542085  0.00724461  0.08637190     0.14500
C945        C  0.86862829  0.63733302  0.13435417     0.30000
C946        C  0.86596069  0.66935787  0.14788249    -0.36400
C947        C  0.86663076  0.70720629  0.13897361     0.16000
C948        C  0.86969457  0.71328576  0.11819985     0.21800
C949        C  0.87210536  0.68126390  0.10464703    -0.34500
C950        C  0.87144362  0.64344589  0.11355414     0.15900
O951        O  0.86940290  0.59942767  0.13939776    -0.26500
C952        C  0.87264997  0.58109762  0.12154461     0.05700
C953        C  0.87397075  0.60704818  0.10497672    -0.31400
O954        O  0.87046270  0.75124905  0.11331365    -0.23200
C955        C  0.86780950  0.76970895  0.13121161    -0.03200
C956        C  0.86526452  0.74375178  0.14766390    -0.17600
H957        H  0.86387886  0.66511130  0.16424103     0.20400
H958        H  0.87467111  0.68553022  0.08834702     0.18700
H959        H  0.87690781  0.60010215  0.08896850     0.18700
H960        H  0.86303930  0.75084324  0.16374990     0.14500
C961        C  0.87358957  0.13718259  0.13294940     0.30000
C962        C  0.87411182  0.16945078  0.14650719    -0.36400
C963        C  0.87326616  0.20712191  0.13747299     0.16000
C964        C  0.87201210  0.21294156  0.11652404     0.21800
C965        C  0.87138451  0.18057994  0.10292516    -0.34500
C966        C  0.87225970  0.14279365  0.11198322     0.15900
O967        O  0.87470432  0.09940196  0.13809467    -0.26500
C968        C  0.87409219  0.08043194  0.12019163     0.05700
C969        C  0.87255207  0.10595319  0.10341786    -0.31400
O970        O  0.87160165  0.25094689  0.11152160    -0.23200
C971        C  0.87256761  0.26956466  0.12955683    -0.03200
C972        C  0.87357409  0.24369279  0.14617111    -0.17600
H973        H  0.87527535  0.16547541  0.16296529     0.20400
H974        H  0.87044844  0.18455822  0.08645623     0.18700
H975        H  0.87209929  0.09843314  0.08725581     0.18700
H976        H  0.87440772  0.25086416  0.16236466     0.14500
C977        C  0.98023422  0.48457264  0.10922679     0.30000
C978        C  0.99924169  0.49225391  0.09719681    -0.36400
C979        C  0.01961371  0.49642152  0.10779821     0.16000
C980        C  0.02136454  0.49346263  0.12887195     0.21800
C981        C  0.00223416  0.48534824  0.14098804    -0.34500
C982        C  0.98168387  0.48103309  0.13030342     0.15900
O983        O  0.95951659  0.48069799  0.10231004    -0.26500
C984        C  0.94727788  0.47435739  0.11905814     0.05700
C985        C  0.96015721  0.47411432  0.13701912    -0.31400
O986        O  0.04229923  0.49900596  0.13541456    -0.23200
C987        C  0.05392922  0.50537248  0.11820804    -0.03200
C988        C  0.04062190  0.50393594  0.10063856    -0.17600
H989        H  0.99817760  0.49510526  0.08066815     0.20400
H990        H  0.00326525  0.48284938  0.15752920     0.18700
H991        H  0.95443855  0.47032737  0.15266769     0.18700
H992        H  0.04574124  0.50786690  0.08481991     0.14500
C993        C  0.01982278  0.47764013  0.37479505     0.30000
C994        C  0.00084256  0.48607498  0.36251153    -0.36400
C995        C  0.98048310  0.49267910  0.37306612     0.16000
C996        C  0.97901038  0.49075032  0.39419007     0.21800
C997        C  0.99782139  0.48213237  0.40638796    -0.34500
C998        C  0.01805754  0.47582004  0.39589817     0.15900
O999        O  0.04080833  0.47250796  0.36841972    -0.26500
C1000       C  0.05250269  0.46744417  0.38573420     0.05700
C1001       C  0.03911784  0.46903050  0.40323091    -0.31400
O1002       O  0.95852744  0.49765265  0.40098553    -0.23200
C1003       C  0.94650979  0.50432380  0.38408895    -0.03200
C1004       C  0.95926853  0.50164546  0.36617200    -0.17600
H1005       H  0.00194087  0.48796536  0.34595643     0.20400
H1006       H  0.99679840  0.48092720  0.42297086     0.18700
H1007       H  0.04432420  0.46698291  0.41914047     0.18700
H1008       H  0.95365185  0.50500512  0.35044715     0.14500
C1009       C  0.88423046  0.52112041  0.26631421     0.30000
C1010       C  0.88429386  0.53395364  0.24575742    -0.36400
C1011       C  0.88459821  0.50403259  0.23073668     0.16000
C1012       C  0.88448484  0.46428173  0.23571809     0.21800
C1013       C  0.88511959  0.45150460  0.25624933    -0.34500
C1014       C  0.88513408  0.48138769  0.27125090     0.15900
O1015       O  0.88216628  0.54383515  0.28269141    -0.26500
C1016       C  0.88219755  0.51846795  0.29836878     0.05700
C1017       C  0.88423160  0.47915128  0.29220320    -0.31400
O1018       O  0.88253524  0.44132310  0.21942578    -0.23200
C1019       C  0.88184827  0.46649088  0.20370200    -0.03200
C1020       C  0.88330647  0.50601184  0.20976590    -0.17600
H1021       H  0.88338737  0.56505153  0.24176687     0.20400
H1022       H  0.88483339  0.42037598  0.26024864     0.18700
H1023       H  0.88376304  0.45280756  0.30166747     0.18700
H1024       H  0.88221440  0.53222779  0.20024763     0.14500
C1025       C  0.87587500  0.84187962  0.38772954     0.30000
C1026       C  0.87571648  0.80611341  0.39872106    -0.36400
C1027       C  0.87674386  0.77146653  0.38688250     0.16000
C1028       C  0.87787623  0.77218452  0.36571594     0.21800
C1029       C  0.87825226  0.80792495  0.35475486    -0.34500
C1030       C  0.87713363  0.84253327  0.36657308     0.15900
O1031       O  0.87493915  0.87767056  0.39568716    -0.26500
C1032       C  0.87551737  0.90159626  0.37945535     0.05700
C1033       C  0.87694197  0.88141429  0.36088092    -0.31400
O1034       O  0.87779774  0.73647789  0.35764599    -0.23200
C1035       C  0.87669410  0.71245812  0.37378851    -0.03200
C1036       C  0.87609294  0.73250459  0.39246129    -0.17600
H1037       H  0.87463135  0.80538405  0.41530623     0.20400
H1038       H  0.87904797  0.80864468  0.33815653     0.18700
H1039       H  0.87804357  0.89358524  0.34554125     0.18700
H1040       H  0.87466303  0.72024144  0.40775871     0.14500
C1041       C  0.87496436  0.34209496  0.38888243     0.30000
C1042       C  0.87736855  0.30652947  0.39985081    -0.36400
C1043       C  0.87449236  0.27165309  0.38843449     0.16000
C1044       C  0.86959103  0.27205074  0.36770396     0.21800
C1045       C  0.86730636  0.30753319  0.35675180    -0.34500
C1046       C  0.87021542  0.34232496  0.36812666     0.15900
O1047       O  0.87699907  0.37806449  0.39644198    -0.26500
C1048       C  0.87356304  0.40159990  0.38034075     0.05700
C1049       C  0.86933330  0.38103941  0.36224912    -0.31400
O1050       O  0.86767026  0.23627759  0.35997491    -0.23200
C1051       C  0.87141201  0.21247687  0.37586338    -0.03200
C1052       C  0.87575700  0.23273841  0.39407141    -0.17600
H1053       H  0.88125070  0.30612414  0.41609717     0.20400
H1054       H  0.86357878  0.30793190  0.34047682     0.18700
H1055       H  0.86620528  0.39284913  0.34706079     0.18700
H1056       H  0.87939419  0.22063354  0.40910375     0.14500
C1057       C  0.02062674  0.98721728  0.39495612     0.30000
C1058       C  0.00186372  0.99691484  0.40699146    -0.36400
C1059       C  0.98133682  0.00052207  0.39650593     0.16000
C1060       C  0.97929359  0.99517086  0.37557060     0.21800
C1061       C  0.99811651  0.98511160  0.36351674    -0.34500
C1062       C  0.01874228  0.98135381  0.37404444     0.15900
O1063       O  0.04145888  0.98319567  0.40163763    -0.26500
C1064       C  0.05323718  0.97445215  0.38486387     0.05700
C1065       C  0.03997170  0.97276442  0.36719035    -0.31400
O1066       O  0.95831454  0.99984154  0.36906928    -0.23200
C1067       C  0.94685402  0.00810467  0.38612593    -0.03200
C1068       C  0.96035566  0.00880187  0.40361995    -0.17600
H1069       H  0.00319452  0.00142858  0.42341022     0.20400
H1070       H  0.99677996  0.98056251  0.34710704     0.18700
H1071       H  0.04527011  0.96691977  0.35158466     0.18700
H1072       H  0.95532826  0.01404044  0.41936592     0.14500
C1073       C  0.88271847  0.96617993  0.23596460     0.30000
C1074       C  0.88463560  0.95339524  0.25645074    -0.36400
C1075       C  0.88514254  0.98325878  0.27148151     0.16000
C1076       C  0.88339037  0.02291898  0.26660186     0.21800
C1077       C  0.88193593  0.03575993  0.24608257    -0.34500
C1078       C  0.88188290  0.00591494  0.23102977     0.15900
O1079       O  0.88083887  0.94319327  0.21967433    -0.26500
C1080       C  0.87929586  0.96837316  0.20399412     0.05700
C1081       C  0.87995219  0.00791949  0.21009117    -0.31400
O1082       O  0.88210531  0.04557400  0.28305592    -0.23200
C1083       C  0.88348196  0.02033953  0.29875322    -0.03200
C1084       C  0.88562317  0.98106550  0.29248662    -0.17600
H1085       H  0.88517216  0.92225981  0.26041162     0.20400
H1086       H  0.88040587  0.06681842  0.24216962     0.18700
H1087       H  0.87822384  0.03409050  0.20061809     0.18700
H1088       H  0.88594283  0.95472862  0.30195993     0.14500
C1089       C  0.73074155  0.62452895  0.35678389     0.30000
C1090       C  0.74994203  0.61907596  0.34468385    -0.36400
C1091       C  0.77011175  0.61268336  0.35529429     0.16000
C1092       C  0.77152820  0.61189493  0.37643731     0.21800
C1093       C  0.75218032  0.61749839  0.38864860    -0.34500
C1094       C  0.73181105  0.62378361  0.37795616     0.15900
O1095       O  0.71010621  0.62916521  0.34980517    -0.26500
C1096       C  0.69752187  0.63149791  0.36661731     0.05700
C1097       C  0.71010998  0.62855004  0.38468564    -0.31400
O1098       O  0.79243887  0.60610676  0.38295168    -0.23200
C1099       C  0.80438791  0.60312054  0.36566845    -0.03200
C1100       C  0.79127239  0.60687513  0.34807213    -0.17600
H1101       H  0.74915807  0.61940597  0.32807675     0.20400
H1102       H  0.75292657  0.61678635  0.40525015     0.18700
H1103       H  0.70406538  0.62834592  0.40035701     0.18700
H1104       H  0.79667257  0.60639400  0.33220209     0.14500
C1105       C  0.62460875  0.88662995  0.38561260     0.30000
C1106       C  0.62473860  0.92225342  0.39673665    -0.36400
C1107       C  0.62292704  0.95694929  0.38508988     0.16000
C1108       C  0.62106280  0.95643954  0.36395857     0.21800
C1109       C  0.62057035  0.92078845  0.35285469    -0.34500
C1110       C  0.62254341  0.88610154  0.36449921     0.15900
O1111       O  0.62626143  0.85085858  0.39343184    -0.26500
C1112       C  0.62531578  0.82701714  0.37716776     0.05700
C1113       C  0.62298530  0.84725785  0.35868716    -0.31400
O1114       O  0.62105616  0.99224502  0.35604909    -0.23200
C1115       C  0.62285618  0.01604778  0.37227500    -0.03200
C1116       C  0.62386868  0.99580829  0.39083122    -0.17600
H1117       H  0.62652073  0.92285967  0.41327798     0.20400
H1118       H  0.61924761  0.92021057  0.33627680     0.18700
H1119       H  0.62132870  0.83512828  0.34335827     0.18700
H1120       H  0.62605384  0.00785452  0.40612175     0.14500
C1121       C  0.62808898  0.38650950  0.38488271     0.30000
C1122       C  0.62765909  0.42242834  0.39572166    -0.36400
C1123       C  0.62785323  0.45687532  0.38376753     0.16000
C1124       C  0.62857244  0.45599576  0.36259042     0.21800
C1125       C  0.62901173  0.42001747  0.35171831    -0.34500
C1126       C  0.62874312  0.38551138  0.36369984     0.15900
O1127       O  0.62726709  0.35089769  0.39303294    -0.26500
C1128       C  0.62743788  0.32664272  0.37691958     0.05700
C1129       C  0.62840447  0.34646884  0.35821262    -0.31400
O1130       O  0.62883210  0.49177289  0.35453962    -0.23200
C1131       C  0.62815183  0.51585319  0.37075494    -0.03200
C1132       C  0.62748490  0.49579846  0.38936595    -0.17600
H1133       H  0.62701603  0.42341693  0.41232249     0.20400
H1134       H  0.62940710  0.41902114  0.33510865     0.18700
H1135       H  0.62821034  0.33399326  0.34288816     0.18700
H1136       H  0.62712287  0.50809621  0.40472162     0.14500
C1137       C  0.72908553  0.12135243  0.37561234     0.30000
C1138       C  0.74837589  0.11697020  0.38810420    -0.36400
C1139       C  0.76884069  0.10961524  0.37780509     0.16000
C1140       C  0.77015975  0.10703861  0.35669524     0.21800
C1141       C  0.75101537  0.11169226  0.34426456    -0.34500
C1142       C  0.73066368  0.11886189  0.35452024     0.15900
O1143       O  0.70803988  0.12666858  0.38187044    -0.26500
C1144       C  0.69606080  0.12763946  0.36449641     0.05700
C1145       C  0.70937953  0.12313617  0.34706336    -0.31400
O1146       O  0.79086217  0.10067387  0.35015758    -0.23200
C1147       C  0.80318635  0.09893707  0.36723834    -0.03200
C1148       C  0.79035974  0.10428219  0.38497281    -0.17600
H1149       H  0.74746420  0.11877674  0.40467397     0.20400
H1150       H  0.75190867  0.10962368  0.32769756     0.18700
H1151       H  0.70402194  0.12183146  0.33117411     0.18700
H1152       H  0.79614774  0.10530407  0.40073730     0.14500
C1153       C  0.76753146  0.88109481  0.14490721     0.30000
C1154       C  0.74850201  0.87424941  0.15709545    -0.36400
C1155       C  0.72825675  0.86764050  0.14657679     0.16000
C1156       C  0.72661897  0.86817316  0.12544888     0.21800
C1157       C  0.74577839  0.87514903  0.11316350    -0.34500
C1158       C  0.76623603  0.88142425  0.12374836     0.15900
O1159       O  0.78824813  0.88566657  0.15174984    -0.26500
C1160       C  0.80068892  0.88892803  0.13486975     0.05700
C1161       C  0.78788109  0.88673156  0.11688631    -0.31400
O1162       O  0.70570995  0.86201845  0.11900258    -0.23200
C1163       C  0.69395519  0.85727511  0.13629028    -0.03200
C1164       C  0.70721692  0.86034762  0.15385577    -0.17600
H1165       H  0.74949451  0.87352951  0.17368990     0.20400
H1166       H  0.74484465  0.87527504  0.09656566     0.18700
H1167       H  0.79375873  0.88712455  0.10116398     0.18700
H1168       H  0.70196953  0.85863887  0.16974471     0.14500
C1169       C  0.62031794  0.70809779  0.26390244     0.30000
C1170       C  0.62384904  0.69701461  0.24328500    -0.36400
C1171       C  0.61924897  0.72610428  0.22840133     0.16000
C1172       C  0.61201253  0.76364707  0.23359777     0.21800
C1173       C  0.60792991  0.77435468  0.25414423    -0.34500
C1174       C  0.61225941  0.74516107  0.26898572     0.15900
O1175       O  0.62484215  0.68645344  0.28027054    -0.26500
C1176       C  0.61932437  0.70962749  0.29609913     0.05700
C1177       C  0.61119700  0.74648506  0.28998467    -0.31400
O1178       O  0.61089463  0.78745666  0.21758665    -0.23200
C1179       C  0.61700555  0.76486100  0.20175938    -0.03200
C1180       C  0.62222800  0.72616309  0.20751869    -0.17600
H1181       H  0.63037517  0.66812064  0.23918988     0.20400
H1182       H  0.60244596  0.80387156  0.25831376     0.18700
H1183       H  0.60616085  0.77112587  0.29959212     0.18700
H1184       H  0.62872311  0.70250801  0.19797613     0.14500
C1185       C  0.63264031  0.52453964  0.11340609     0.30000
C1186       C  0.62811534  0.55679214  0.10048382    -0.36400
C1187       C  0.63114131  0.59453017  0.10916579     0.16000
C1188       C  0.63818530  0.60037503  0.12916583     0.21800
C1189       C  0.64324019  0.56812204  0.14193713    -0.34500
C1190       C  0.64010377  0.53036889  0.13328282     0.15900
O1191       O  0.62934215  0.48670120  0.10900523    -0.26500
C1192       C  0.63480936  0.46808698  0.12631128     0.05700
C1193       C  0.64179182  0.49380461  0.14183448    -0.31400
O1194       O  0.63821975  0.63819855  0.13452103    -0.23200
C1195       C  0.63126213  0.65676841  0.11764267    -0.03200
C1196       C  0.62677382  0.63104335  0.10139390    -0.17600
H1197       H  0.62187697  0.55277602  0.08498929     0.20400
H1198       H  0.64843909  0.57213249  0.15774598     0.18700
H1199       H  0.64663574  0.48663256  0.15743065     0.18700
H1200       H  0.62032108  0.63815720  0.08627910     0.14500
C1201       C  0.62622751  0.02771593  0.13624266     0.30000
C1202       C  0.62689881  0.06378598  0.14703235    -0.36400
C1203       C  0.62836035  0.09818296  0.13501992     0.16000
C1204       C  0.62917054  0.09707726  0.11385047     0.21800
C1205       C  0.62856444  0.06099770  0.10306556    -0.34500
C1206       C  0.62693144  0.02662036  0.11507069     0.15900
O1207       O  0.62502074  0.99205538  0.14440918    -0.26500
C1208       C  0.62476010  0.96772830  0.12828396     0.05700
C1209       C  0.62585070  0.98759043  0.10959566    -0.31400
O1210       O  0.62950081  0.13276974  0.10565142    -0.23200
C1211       C  0.62892627  0.15716471  0.12174148    -0.03200
C1212       C  0.62830126  0.13727772  0.14045015    -0.17600
H1213       H  0.62611061  0.06495021  0.16362557     0.20400
H1214       H  0.62900310  0.05985985  0.08646086     0.18700
H1215       H  0.62635148  0.97505688  0.09429355     0.18700
H1216       H  0.62704414  0.14978230  0.15572235     0.14500
C1217       C  0.77053671  0.37095744  0.14508630     0.30000
C1218       C  0.75159864  0.36253346  0.15711240    -0.36400
C1219       C  0.73133656  0.35698642  0.14646122     0.16000
C1220       C  0.72963220  0.35980645  0.12538097     0.21800
C1221       C  0.74871269  0.36806807  0.11326477    -0.34500
C1222       C  0.76913298  0.37348768  0.12397022     0.15900
O1223       O  0.79116859  0.37626527  0.15200759    -0.26500
C1224       C  0.80336101  0.38232918  0.13519093     0.05700
C1225       C  0.79054778  0.38100228  0.11721590    -0.31400
O1226       O  0.70864530  0.35531041  0.11884885    -0.23200
C1227       C  0.69690943  0.34921392  0.13601363    -0.03200
C1228       C  0.71024076  0.34982152  0.15359642    -0.17600
H1229       H  0.75259809  0.36049679  0.17367626     0.20400
H1230       H  0.74768726  0.37034732  0.09671398     0.18700
H1231       H  0.79627894  0.38391522  0.10151986     0.18700
H1232       H  0.70496897  0.34720139  0.16944485     0.14500
C1233       C  0.61307818  0.26984862  0.23491086     0.30000
C1234       C  0.61158880  0.28054063  0.25575073    -0.36400
C1235       C  0.61345769  0.24951763  0.27001229     0.16000
C1236       C  0.61684479  0.21068808  0.26411663     0.21800
C1237       C  0.61769829  0.19983445  0.24324264    -0.34500
C1238       C  0.61556695  0.23083328  0.22895999     0.15900
O1239       O  0.61363217  0.29448574  0.21921011    -0.26500
C1240       C  0.61604894  0.27107308  0.20286721     0.05700
C1241       C  0.61715549  0.23102628  0.20797419    -0.31400
O1242       O  0.62003040  0.18695711  0.27996294    -0.23200
C1243       C  0.61832775  0.21068599  0.29628063    -0.03200
C1244       C  0.61400709  0.24994801  0.29102116    -0.17600
H1245       H  0.60985234  0.31112760  0.26052539     0.20400
H1246       H  0.62055475  0.16950065  0.23848693     0.18700
H1247       H  0.62016134  0.20609699  0.19786381     0.18700
H1248       H  0.61253986  0.27529098  0.30114165     0.14500
C1249       C  0.27057591  0.85769726  0.37534056     0.30000
C1250       C  0.25146605  0.86536469  0.38758566    -0.36400
C1251       C  0.23075394  0.86908656  0.37709703     0.16000
C1252       C  0.22904611  0.86531420  0.35605340     0.21800
C1253       C  0.24801209  0.85739217  0.34389423    -0.34500
C1254       C  0.26861151  0.85380866  0.35432644     0.15900
O1255       O  0.29179581  0.85508368  0.38165234    -0.26500
C1256       C  0.30351090  0.84937319  0.36440365     0.05700
C1257       C  0.28983760  0.84815948  0.34700520    -0.31400
O1258       O  0.20822364  0.86975717  0.34932711    -0.23200
C1259       C  0.19620728  0.87657492  0.36621078    -0.03200
C1260       C  0.20935522  0.87650221  0.38400977    -0.17600
H1261       H  0.25270029  0.86874890  0.40407697     0.20400
H1262       H  0.24682296  0.85464383  0.32736533     0.18700
H1263       H  0.29492603  0.84514391  0.33112485     0.18700
H1264       H  0.20388643  0.88061968  0.39971379     0.14500
C1265       C  0.52125736  0.73795378  0.39252101     0.30000
C1266       C  0.50265729  0.74781741  0.40472411    -0.36400
C1267       C  0.48237535  0.75458035  0.39426310     0.16000
C1268       C  0.48037840  0.75196057  0.37319334     0.21800
C1269       C  0.49909185  0.74197461  0.36093136    -0.34500
C1270       C  0.51948365  0.73499620  0.37144291     0.15900
O1271       O  0.54185134  0.73122716  0.39921815    -0.26500
C1272       C  0.55360584  0.72352159  0.38229704     0.05700
C1273       C  0.54055629  0.72534076  0.36448770    -0.31400
O1274       O  0.45947738  0.75840230  0.36680872    -0.23200
C1275       C  0.44803236  0.76518085  0.38407592    -0.03200
C1276       C  0.46151719  0.76321725  0.40156371    -0.17600
H1277       H  0.50390672  0.74996557  0.42127471     0.20400
H1278       H  0.49781424  0.73956222  0.34439859     0.18700
H1279       H  0.54595170  0.72136983  0.34875328     0.18700
H1280       H  0.45649041  0.76640376  0.41745475     0.14500
C1281       C  0.37437468  0.60077315  0.36576672     0.30000
C1282       C  0.37242908  0.56855691  0.35225377    -0.36400
C1283       C  0.37334639  0.53085208  0.36130167     0.16000
C1284       C  0.37610340  0.52506857  0.38215060     0.21800
C1285       C  0.37803446  0.55724756  0.39562903    -0.34500
C1286       C  0.37698754  0.59489257  0.38661772     0.15900
O1287       O  0.37403660  0.63871788  0.36076922    -0.26500
C1288       C  0.37633040  0.65719575  0.37872438     0.05700
C1289       C  0.37824476  0.63136691  0.39526512    -0.31400
O1290       O  0.37644081  0.48721836  0.38726757    -0.23200
C1291       C  0.37381654  0.46855039  0.36943842    -0.03200
C1292       C  0.37179055  0.49422827  0.35279714    -0.17600
H1293       H  0.37030209  0.57256639  0.33587489     0.20400
H1294       H  0.38013322  0.55324270  0.41200890     0.18700
H1295       H  0.38049924  0.63849904  0.41135225     0.18700
H1296       H  0.36942490  0.48689840  0.33674476     0.14500
C1297       C  0.37543270  0.09742617  0.38573929     0.30000
C1298       C  0.37822461  0.06148200  0.39627955    -0.36400
C1299       C  0.37568547  0.02695033  0.38450500     0.16000
C1300       C  0.37080845  0.02782531  0.36377852     0.21800
C1301       C  0.36823386  0.06377151  0.35319727    -0.34500
C1302       C  0.37070963  0.09829900  0.36498390     0.15900
O1303       O  0.37710900  0.13317390  0.39373755    -0.26500
C1304       C  0.37347794  0.15732538  0.37792058     0.05700
C1305       C  0.36941951  0.13728941  0.35959815    -0.31400
O1306       O  0.36874677  0.99208207  0.35585267    -0.23200
C1307       C  0.37230974  0.96793033  0.37168150    -0.03200
C1308       C  0.37682601  0.98795540  0.38991865    -0.17600
H1309       H  0.38200961  0.06052742  0.41253711     0.20400
H1310       H  0.36444469  0.06472690  0.33694038     0.18700
H1311       H  0.36629332  0.14964250  0.34452597     0.18700
H1312       H  0.38023430  0.97559981  0.40493899     0.14500
C1313       C  0.27108358  0.36444652  0.37540107     0.30000
C1314       C  0.25191910  0.37134245  0.38764117    -0.36400
C1315       C  0.23131655  0.37544602  0.37705686     0.16000
C1316       C  0.22978225  0.37296508  0.35593857     0.21800
C1317       C  0.24881579  0.36623219  0.34378028    -0.34500
C1318       C  0.26924906  0.36199783  0.35431246     0.15900
O1319       O  0.29217655  0.36032221  0.38181552    -0.26500
C1320       C  0.30383672  0.35501363  0.36452550     0.05700
C1321       C  0.29033101  0.35573671  0.34703885    -0.31400
O1322       O  0.20895379  0.37636980  0.34917480    -0.23200
C1323       C  0.19679220  0.38120345  0.36611329    -0.03200
C1324       C  0.20980108  0.38103653  0.38397531    -0.17600
H1325       H  0.25297013  0.37324812  0.40420519     0.20400
H1326       H  0.24774051  0.36415172  0.32721790     0.18700
H1327       H  0.29543537  0.35311280  0.33114143     0.18700
H1328       H  0.20414203  0.38340933  0.39971966     0.14500
C1329       C  0.52071237  0.23883082  0.38992725     0.30000
C1330       C  0.50198780  0.24994639  0.40157329    -0.36400
C1331       C  0.48176309  0.25456326  0.39081420     0.16000
C1332       C  0.47979505  0.24878972  0.36991430     0.21800
C1333       C  0.49873473  0.23767267  0.35811734    -0.34500
C1334       C  0.51919282  0.23293894  0.36899180     0.15900
O1335       O  0.54118408  0.23325637  0.39714894    -0.26500
C1336       C  0.55328154  0.22355116  0.38075430     0.05700
C1337       C  0.54050137  0.22284783  0.36269615    -0.31400
O1338       O  0.45875505  0.25366261  0.36337386    -0.23200
C1339       C  0.44734417  0.26256162  0.38044227    -0.03200
C1340       C  0.46092804  0.26358279  0.39783536    -0.17600
H1341       H  0.50309137  0.25446692  0.41800398     0.20400
H1342       H  0.49757989  0.23276127  0.34172329     0.18700
H1343       H  0.54615573  0.21655625  0.34724096     0.18700
H1344       H  0.45598327  0.26907816  0.41357984     0.14500
C1345       C  0.27015401  0.61840433  0.14584148     0.30000
C1346       C  0.25102310  0.61335528  0.15816438    -0.36400
C1347       C  0.23048397  0.60867682  0.14778219     0.16000
C1348       C  0.22870975  0.60879726  0.12665905     0.21800
C1349       C  0.24799097  0.61357692  0.11425048    -0.34500
C1350       C  0.26866231  0.61851063  0.12469376     0.15900
O1351       O  0.29096004  0.62320543  0.15252604    -0.26500
C1352       C  0.30320303  0.62669661  0.13552277     0.05700
C1353       C  0.29021518  0.62395209  0.11766541    -0.31400
O1354       O  0.20753390  0.60527404  0.12034434    -0.23200
C1355       C  0.19569951  0.60282163  0.13771764    -0.03200
C1356       C  0.20920799  0.60465952  0.15519439    -0.17600
H1357       H  0.25206231  0.61341991  0.17476096     0.20400
H1358       H  0.24692318  0.61388742  0.09766010     0.18700
H1359       H  0.29588168  0.62496821  0.10188582     0.18700
H1360       H  0.20400940  0.60421176  0.17112019     0.14500
C1361       C  0.48030520  0.73439215  0.10863330     0.30000
C1362       C  0.49866831  0.74567679  0.09654082    -0.36400
C1363       C  0.51918114  0.75045363  0.10683407     0.16000
C1364       C  0.52167136  0.74471774  0.12768711     0.21800
C1365       C  0.50310957  0.73353139  0.13991227    -0.34500
C1366       C  0.48240576  0.72855166  0.12952182     0.15900
O1367       O  0.45964774  0.72869913  0.10192862    -0.26500
C1368       C  0.44805060  0.71893449  0.11861291     0.05700
C1369       C  0.46132125  0.71832333  0.13635039    -0.31400
O1370       O  0.54281347  0.74973903  0.13380954    -0.23200
C1371       C  0.55381431  0.75866606  0.11655441    -0.03200
C1372       C  0.53985226  0.75964548  0.09939772    -0.17600
H1373       H  0.49708449  0.75018572  0.08014619     0.20400
H1374       H  0.50472903  0.72872873  0.15627595     0.18700
H1375       H  0.45611104  0.71218810  0.15194590     0.18700
H1376       H  0.54442158  0.76530352  0.08357914     0.14500
C1377       C  0.38856761  0.76792627  0.26548448     0.30000
C1378       C  0.39072733  0.77848485  0.24467086    -0.36400
C1379       C  0.38817608  0.74764812  0.23031511     0.16000
C1380       C  0.38353602  0.70917194  0.23610234     0.21800
C1381       C  0.38210023  0.69838592  0.25693192    -0.34500
C1382       C  0.38493476  0.72912527  0.27129618     0.15900
O1383       O  0.38822938  0.79255753  0.28125325    -0.26500
C1384       C  0.38485851  0.76923688  0.29747463     0.05700
C1385       C  0.38291501  0.72935622  0.29223363    -0.31400
O1386       O  0.37984334  0.68573926  0.22019622    -0.23200
C1387       C  0.38252203  0.70922689  0.20393029    -0.03200
C1388       C  0.38795010  0.74807106  0.20929096    -0.17600
H1389       H  0.39339504  0.80889214  0.23997138     0.20400
H1390       H  0.37826165  0.66834451  0.26159306     0.18700
H1391       H  0.37899590  0.70465618  0.30220801     0.18700
H1392       H  0.39033747  0.77321845  0.19921424     0.14500
C1393       C  0.37617903  0.88449454  0.11393116     0.30000
C1394       C  0.37587544  0.92004358  0.10274566    -0.36400
C1395       C  0.37645980  0.95496879  0.11440380     0.16000
C1396       C  0.37718667  0.95471741  0.13558995     0.21800
C1397       C  0.37760896  0.91920186  0.14675703    -0.34500
C1398       C  0.37704495  0.88431397  0.13511091     0.15900
O1399       O  0.37595866  0.84850730  0.10614567    -0.26500
C1400       C  0.37661538  0.82492946  0.12251340     0.05700
C1401       C  0.37733991  0.84554207  0.14100282    -0.31400
O1402       O  0.37712655  0.99061846  0.14343957    -0.23200
C1403       C  0.37651166  0.01429841  0.12713104    -0.03200
C1404       C  0.37612855  0.99382536  0.10857770    -0.17600
H1405       H  0.37521069  0.92040674  0.08613610     0.20400
H1406       H  0.37824315  0.91883808  0.16336742     0.18700
H1407       H  0.37834106  0.83372324  0.15642541     0.18700
H1408       H  0.37524975  0.00577060  0.09317631     0.14500
C1409       C  0.37110312  0.38481764  0.11314456     0.30000
C1410       C  0.37064377  0.42093250  0.10246207    -0.36400
C1411       C  0.37096506  0.45525261  0.11461615     0.16000
C1412       C  0.37147459  0.45396733  0.13579870     0.21800
C1413       C  0.37178308  0.41790751  0.14646582    -0.34500
C1414       C  0.37161897  0.38364275  0.13432808     0.15900
O1415       O  0.37203109  0.34922833  0.10487361    -0.26500
C1416       C  0.37309969  0.32496864  0.12095484     0.05700
C1417       C  0.37283032  0.34471077  0.13970026    -0.31400
O1418       O  0.37190202  0.48947967  0.14412911    -0.23200
C1419       C  0.37179323  0.51393574  0.12812504    -0.03200
C1420       C  0.37120183  0.49435808  0.10931586    -0.17600
H1421       H  0.37046734  0.42216500  0.08585503     0.20400
H1422       H  0.37245555  0.41668425  0.16306390     0.18700
H1423       H  0.37413112  0.33227618  0.15497483     0.18700
H1424       H  0.37084446  0.50706149  0.09406196     0.14500
C1425       C  0.27322211  0.11911020  0.14476495     0.30000
C1426       C  0.25402092  0.11521393  0.15710149    -0.36400
C1427       C  0.23367729  0.10800842  0.14677764     0.16000
C1428       C  0.23212193  0.10491027  0.12569933     0.21800
C1429       C  0.25147258  0.10862271  0.11328882    -0.34500
C1430       C  0.27195409  0.11591916  0.12366643     0.15900
O1431       O  0.29393136  0.12530306  0.15140100    -0.26500
C1432       C  0.30631461  0.12631173  0.13439651     0.05700
C1433       C  0.29352696  0.12069190  0.11660895    -0.31400
O1434       O  0.21104727  0.09973813  0.11937945    -0.23200
C1435       C  0.19906173  0.09934056  0.13671668    -0.03200
C1436       C  0.21238691  0.10422007  0.15416330    -0.17600
H1437       H  0.25487251  0.11780679  0.17365420     0.20400
H1438       H  0.25060129  0.10633567  0.09672926     0.18700
H1439       H  0.29936404  0.11920835  0.10088999     0.18700
H1440       H  0.20702366  0.10624039  0.17001158     0.14500
C1441       C  0.52193412  0.25046060  0.12681214     0.30000
C1442       C  0.50292774  0.24144977  0.13892114    -0.36400
C1443       C  0.48259997  0.23481149  0.12819642     0.16000
C1444       C  0.48117762  0.23721612  0.10707877     0.21800
C1445       C  0.50003772  0.24621235  0.09505718    -0.34500
C1446       C  0.52023453  0.25255518  0.10570829     0.15900
O1447       O  0.54284203  0.25638409  0.13336129    -0.26500
C1448       C  0.55455474  0.26216719  0.11614415     0.05700
C1449       C  0.54125893  0.26019620  0.09855416    -0.31400
O1450       O  0.46067184  0.23059000  0.10011857    -0.23200
C1451       C  0.44857107  0.22359259  0.11689930    -0.03200
C1452       C  0.46133150  0.22572926  0.13489845    -0.17600
H1453       H  0.50395389  0.23939926  0.15547899     0.20400
H1454       H  0.49905579  0.24789161  0.07848076     0.18700
H1455       H  0.54648352  0.26293916  0.08269688     0.18700
H1456       H  0.45566767  0.22204798  0.15057030     0.14500
C1457       C  0.38611806  0.21239441  0.23422900     0.30000
C1458       C  0.38696326  0.20114132  0.25500202    -0.36400
C1459       C  0.38552663  0.23197439  0.26942760     0.16000
C1460       C  0.38307526  0.27111024  0.26371595     0.21800
C1461       C  0.38283894  0.28247141  0.24293717    -0.34500
C1462       C  0.38460822  0.25167694  0.22850638     0.15900
O1463       O  0.38549445  0.18819014  0.21834078    -0.26500
C1464       C  0.38404145  0.21215910  0.20215366     0.05700
C1465       C  0.38362802  0.25211036  0.20750564    -0.31400
O1466       O  0.38021596  0.29474444  0.27962871    -0.23200
C1467       C  0.38123997  0.27065705  0.29580704    -0.03200
C1468       C  0.38472905  0.23120859  0.29042166    -0.17600
H1469       H  0.38800000  0.17036660  0.25958724     0.20400
H1470       H  0.38077351  0.31308430  0.23834955     0.18700
H1471       H  0.38153305  0.27745261  0.19750196     0.18700
H1472       H  0.38550080  0.20563734  0.30042357     0.14500
C1473       C  0.13291750  0.87107178  0.52041505     0.30000
C1474       C  0.14594401  0.86497748  0.50251384    -0.36400
C1475       C  0.13458528  0.86947057  0.48353875     0.16000
C1476       C  0.11203655  0.87932556  0.48246715     0.21800
C1477       C  0.09905518  0.88459893  0.50015312    -0.34500
C1478       C  0.11031486  0.88019571  0.51888544     0.15900
O1479       O  0.14032492  0.87308809  0.53969209    -0.26500
C1480       C  0.12207126  0.88347845  0.55043732     0.05700
C1481       C  0.10306413  0.88809086  0.53815846    -0.31400
O1482       O  0.10531258  0.88729577  0.46367395    -0.23200
C1483       C  0.12355766  0.88210326  0.45217742    -0.03200
C1484       C  0.14235113  0.87054775  0.46365607    -0.17600
H1485       H  0.16388052  0.85933959  0.50329430     0.20400
H1486       H  0.08161364  0.89391049  0.49935438     0.18700
H1487       H  0.08657897  0.89877038  0.54264464     0.18700
H1488       H  0.15955639  0.86726977  0.45842963     0.14500
C1489       C  0.13501678  0.36955452  0.52083916     0.30000
C1490       C  0.14859389  0.36563674  0.50310310    -0.36400
C1491       C  0.13729670  0.36752853  0.48397093     0.16000
C1492       C  0.11426810  0.37272357  0.48262405     0.21800
C1493       C  0.10078894  0.37574338  0.50016353    -0.34500
C1494       C  0.11199865  0.37421732  0.51905582     0.15900
O1495       O  0.14204442  0.37393448  0.54011724    -0.26500
C1496       C  0.12317929  0.38148298  0.55062283     0.05700
C1497       C  0.10410815  0.38185863  0.53819588    -0.31400
O1498       O  0.10735482  0.37948507  0.46375354    -0.23200
C1499       C  0.12596875  0.37820364  0.45244997    -0.03200
C1500       C  0.14523915  0.37044847  0.46417016    -0.17600
H1501       H  0.16677578  0.36381473  0.50411167     0.20400
H1502       H  0.08289429  0.38170802  0.49911601     0.18700
H1503       H  0.08705223  0.38975709  0.54244776     0.18700
H1504       H  0.16263577  0.37114750  0.45920167     0.14500
C1505       C  0.12218935  0.70867384  0.63715844     0.30000
C1506       C  0.12365884  0.67285631  0.64796006    -0.36400
C1507       C  0.12367874  0.63841394  0.63597193     0.16000
C1508       C  0.12237289  0.63925041  0.61481115     0.21800
C1509       C  0.12093382  0.67512500  0.60399601    -0.34500
C1510       C  0.12083972  0.70961154  0.61600123     0.15900
O1511       O  0.12237299  0.74429623  0.64531865    -0.26500
C1512       C  0.12109391  0.76847625  0.62924297     0.05700
C1513       C  0.11999366  0.74861557  0.61054191    -0.31400
O1514       O  0.12196827  0.60350326  0.60672543    -0.23200
C1515       C  0.12299564  0.57946845  0.62289246    -0.03200
C1516       C  0.12419012  0.59951624  0.64152454    -0.17600
H1517       H  0.12466968  0.67194057  0.66455053     0.20400
H1518       H  0.11984001  0.67604212  0.58741115     0.18700
H1519       H  0.11933071  0.76106727  0.59524086     0.18700
H1520       H  0.12468779  0.58723890  0.65687096     0.14500
C1521       C  0.12418176  0.13952327  0.61585643     0.30000
C1522       C  0.12060888  0.17545409  0.60551801    -0.36400
C1523       C  0.12288617  0.20988295  0.61739370     0.16000
C1524       C  0.12827157  0.20891254  0.63801699     0.21800
C1525       C  0.13185023  0.17298364  0.64835036    -0.34500
C1526       C  0.12957708  0.13855295  0.63647670     0.15900
O1527       O  0.12237468  0.10383707  0.60784905    -0.26500
C1528       C  0.12662210  0.07963845  0.62351666     0.05700
C1529       C  0.13126582  0.09955908  0.64174563    -0.31400
O1530       O  0.12964265  0.24457451  0.64612786    -0.23200
C1531       C  0.12514580  0.26875205  0.63051650    -0.03200
C1532       C  0.12077348  0.24885362  0.61222326    -0.17600
H1533       H  0.11624547  0.17646087  0.58938042     0.20400
H1534       H  0.13602444  0.17196474  0.66452811     0.18700
H1535       H  0.13480698  0.08713386  0.65672529     0.18700
H1536       H  0.11681868  0.26128540  0.59733044     0.14500
C1537       C  0.11344348  0.60148924  0.98334799     0.30000
C1538       C  0.10032547  0.59623263  0.00093302    -0.36400
C1539       C  0.11122454  0.60227490  0.01970418     0.16000
C1540       C  0.13362676  0.61284801  0.02135297     0.21800
C1541       C  0.14679793  0.61883031  0.00353412    -0.34500
C1542       C  0.13579019  0.61271346  0.98450435     0.15900
O1543       O  0.10698942  0.59282913  0.96457228    -0.26500
C1544       C  0.12518531  0.59889797  0.95313642     0.05700
C1545       C  0.14373013  0.61165240  0.96465966    -0.31400
O1546       O  0.14079381  0.61221874  0.04071023    -0.23200
C1547       C  0.12259804  0.60121255  0.05135943    -0.03200
C1548       C  0.10383436  0.59491989  0.03897219    -0.17600
H1549       H  0.08305817  0.58592158  0.00005331     0.20400
H1550       H  0.16459501  0.62570297  0.00444646     0.18700
H1551       H  0.16086745  0.61613251  0.95948080     0.18700
H1552       H  0.08749672  0.58343813  0.04340664     0.14500
C1553       C  0.11604277  0.52049859  0.76729852     0.30000
C1554       C  0.11644042  0.53318002  0.74670081    -0.36400
C1555       C  0.11511176  0.50329784  0.73167116     0.16000
C1556       C  0.11388015  0.46362667  0.73666445     0.21800
C1557       C  0.11283810  0.45103743  0.75725657    -0.34500
C1558       C  0.11381060  0.48095924  0.77227970     0.15900
O1559       O  0.11872956  0.54313889  0.78366983    -0.26500
C1560       C  0.11780077  0.51801967  0.79944301     0.05700
C1561       C  0.11450909  0.47887070  0.79329143    -0.31400
O1562       O  0.11487860  0.44048757  0.72032717    -0.23200
C1563       C  0.11622920  0.46552090  0.70454742    -0.03200
C1564       C  0.11628620  0.50511107  0.71066815    -0.17600
H1565       H  0.11833958  0.56412687  0.74268359     0.20400
H1566       H  0.11201644  0.41995317  0.76128750     0.18700
H1567       H  0.11397345  0.45261124  0.80281449     0.18700
H1568       H  0.11823484  0.53117399  0.70115177     0.14500
C1569       C  0.13749051  0.11159092  0.02088505     0.30000
C1570       C  0.15093097  0.11381059  0.00305175    -0.36400
C1571       C  0.13938078  0.11174982  0.98410835     0.16000
C1572       C  0.11624441  0.10781566  0.98299772     0.21800
C1573       C  0.10288556  0.10644984  0.00065613    -0.34500
C1574       C  0.11435357  0.10828533  0.01940190     0.15900
O1575       O  0.14471029  0.10759228  0.04006391    -0.26500
C1576       C  0.12587563  0.10162956  0.05081126     0.05700
C1577       C  0.10657962  0.10202293  0.03869242    -0.31400
O1578       O  0.10902308  0.10096751  0.96423377    -0.23200
C1579       C  0.12757389  0.10107402  0.95283712    -0.03200
C1580       C  0.14708591  0.10793784  0.96432746    -0.17600
H1581       H  0.16914952  0.11458401  0.00388286     0.20400
H1582       H  0.08486273  0.10158120  0.99983441     0.18700
H1583       H  0.08944325  0.09533532  0.04324359     0.18700
H1584       H  0.16441166  0.10635829  0.95921129     0.14500
C1585       C  0.12563039  0.84278015  0.88904855     0.30000
C1586       C  0.12660510  0.80662764  0.89967162    -0.36400
C1587       C  0.12520150  0.77231174  0.88755663     0.16000
C1588       C  0.12312842  0.77358675  0.86645154     0.21800
C1589       C  0.12221188  0.80969752  0.85583776    -0.34500
C1590       C  0.12354912  0.84396375  0.86794313     0.15900
O1591       O  0.12603040  0.87842970  0.89732788    -0.26500
C1592       C  0.12425052  0.90273620  0.88131541     0.05700
C1593       C  0.12270888  0.88294977  0.86262319    -0.31400
O1594       O  0.12252041  0.73803230  0.85812432    -0.23200
C1595       C  0.12411706  0.71355936  0.87407039    -0.03200
C1596       C  0.12578711  0.73320476  0.89281567    -0.17600
H1597       H  0.12822881  0.80536140  0.91621505     0.20400
H1598       H  0.12053858  0.81097022  0.83929781     0.18700
H1599       H  0.12071346  0.89546023  0.84742687     0.18700
H1600       H  0.12771214  0.72054198  0.90798317     0.14500
C1601       C  0.12905514  0.26988949  0.88549828     0.30000
C1602       C  0.13003747  0.30213392  0.89908780    -0.36400
C1603       C  0.12975257  0.33985239  0.89000562     0.16000
C1604       C  0.12855022  0.34557263  0.86903596     0.21800
C1605       C  0.12763106  0.31336573  0.85547660    -0.34500
C1606       C  0.12791820  0.27571972  0.86453848     0.15900
O1607       O  0.12919590  0.23195898  0.89052294    -0.26500
C1608       C  0.12811469  0.21341276  0.87249983     0.05700
C1609       C  0.12728492  0.23919956  0.85585635    -0.31400
O1610       O  0.12775674  0.38339597  0.86392692    -0.23200
C1611       C  0.12851863  0.40217849  0.88187074    -0.03200
C1612       C  0.12983432  0.37654726  0.89860213    -0.17600
H1613       H  0.13084362  0.29812717  0.91556176     0.20400
H1614       H  0.12658547  0.31736413  0.83901407     0.18700
H1615       H  0.12657259  0.23201312  0.83965992     0.18700
H1616       H  0.13012305  0.38390783  0.91478810     0.14500
C1617       C  0.11918173  0.01980107  0.76772776     0.30000
C1618       C  0.12175215  0.03199532  0.74721342    -0.36400
C1619       C  0.11852592  0.00270495  0.73215000     0.16000
C1620       C  0.11357327  0.96388432  0.73704283     0.21800
C1621       C  0.11046643  0.95189404  0.75755270    -0.34500
C1622       C  0.11329448  0.98138089  0.77260911     0.15900
O1623       O  0.12267156  0.04183400  0.78416027    -0.26500
C1624       C  0.11858046  0.01759950  0.79986099     0.05700
C1625       C  0.11247397  0.97955676  0.79362027    -0.31400
O1626       O  0.11326089  0.94066104  0.72072628    -0.23200
C1627       C  0.11755636  0.96496641  0.70508391    -0.03200
C1628       C  0.12080109  0.00408467  0.71124333    -0.17600
H1629       H  0.12648526  0.06204536  0.74330482     0.20400
H1630       H  0.10667135  0.92146185  0.76151354     0.18700
H1631       H  0.10900766  0.95398553  0.80313564     0.18700
H1632       H  0.12546844  0.02924261  0.70185908     0.14500
C1633       C  0.88488491  0.87469322  0.98334720     0.30000
C1634       C  0.89824924  0.87426165  0.00108243    -0.36400
C1635       C  0.88671304  0.87329869  0.01978750     0.16000
C1636       C  0.86350192  0.87254198  0.02114279     0.21800
C1637       C  0.85003628  0.87215131  0.00325395    -0.34500
C1638       C  0.86165684  0.87320051  0.98437999     0.15900
O1639       O  0.89231223  0.88099712  0.96460534    -0.26500
C1640       C  0.87375510  0.88282477  0.95317779     0.05700
C1641       C  0.85408395  0.87792952  0.96461504    -0.31400
O1642       O  0.85639657  0.87695226  0.04030159    -0.23200
C1643       C  0.87537041  0.88056468  0.05119548    -0.03200
C1644       C  0.89464716  0.87828492  0.03917925    -0.17600
H1645       H  0.91641067  0.87710506  0.00036686     0.20400
H1646       H  0.83182467  0.87337294  0.00400515     0.18700
H1647       H  0.83683312  0.88132096  0.95946637     0.18700
H1648       H  0.91196361  0.88304028  0.04387397     0.14500
C1649       C  0.01975915  0.00266315  0.87628100     0.30000
C1650       C  0.00060323  0.99487799  0.86408290    -0.36400
C1651       C  0.98031186  0.98812276  0.87472504     0.16000
C1652       C  0.97904023  0.98925033  0.89587424     0.21800
C1653       C  0.99806527  0.99704203  0.90801309    -0.34500
C1654       C  0.01825327  0.00355355  0.89741676     0.15900
O1655       O  0.04064652  0.00838025  0.86973415    -0.26500
C1656       C  0.05259122  0.01290716  0.88695947     0.05700
C1657       C  0.03943492  0.01025359  0.90459021    -0.31400
O1658       O  0.95851256  0.98269007  0.90272305    -0.23200
C1659       C  0.94628742  0.97702381  0.88582008    -0.03200
C1660       C  0.95895726  0.98000768  0.86787157    -0.17600
H1661       H  0.00149534  0.99379278  0.84749651     0.20400
H1662       H  0.99720725  0.99772387  0.92461317     0.18700
H1663       H  0.04484747  0.01181285  0.92046020     0.18700
H1664       H  0.95318477  0.97750227  0.85214614     0.14500
C1665       C  0.88647669  0.38250843  0.98192339     0.30000
C1666       C  0.89958425  0.38606798  0.99969409    -0.36400
C1667       C  0.88815228  0.38246884  0.01833840     0.16000
C1668       C  0.86526514  0.37569361  0.01969224     0.21800
C1669       C  0.85207083  0.37143620  0.00171245    -0.34500
C1670       C  0.86361508  0.37506205  0.98282980     0.15900
O1671       O  0.89355267  0.38977515  0.96318573    -0.26500
C1672       C  0.87521818  0.38643092  0.95155869     0.05700
C1673       C  0.85598620  0.37698086  0.96290051    -0.31400
O1674       O  0.85792619  0.37776422  0.03894041    -0.23200
C1675       C  0.87649655  0.38584305  0.04983195    -0.03200
C1676       C  0.89565303  0.38893991  0.03770533    -0.17600
H1677       H  0.91734186  0.39339469  0.99903011     0.20400
H1678       H  0.83397126  0.36761445  0.00238264     0.18700
H1679       H  0.83872235  0.37548435  0.95754567     0.18700
H1680       H  0.91248582  0.39759629  0.04238040     0.14500
C1681       C  0.86968825  0.64166054  0.88688768     0.30000
C1682       C  0.86999903  0.67750334  0.89781173    -0.36400
C1683       C  0.87091504  0.71202097  0.88593043     0.16000
C1684       C  0.87131265  0.71127623  0.86474355     0.21800
C1685       C  0.87092966  0.67540585  0.85379388    -0.34500
C1686       C  0.87010905  0.64083986  0.86569731     0.15900
O1687       O  0.86999636  0.60595730  0.89497918    -0.26500
C1688       C  0.87057446  0.58184093  0.87881303     0.05700
C1689       C  0.87055404  0.60185831  0.86013742    -0.31400
O1690       O  0.87200876  0.74706888  0.85674668    -0.23200
C1691       C  0.87218302  0.77103922  0.87300673    -0.03200
C1692       C  0.87155623  0.75089625  0.89160149    -0.17600
H1693       H  0.86986318  0.67837335  0.91442532     0.20400
H1694       H  0.87146221  0.67452386  0.83718605     0.18700
H1695       H  0.87168567  0.58955274  0.84481248     0.18700
H1696       H  0.87120477  0.76312158  0.90697388     0.14500
C1697       C  0.87205241  0.21464316  0.88682404     0.30000
C1698       C  0.87492986  0.18246653  0.90021791    -0.36400
C1699       C  0.87338448  0.14462648  0.89128400     0.16000
C1700       C  0.86937198  0.13869939  0.87061135     0.21800
C1701       C  0.86625638  0.17081273  0.85728648    -0.34500
C1702       C  0.86771064  0.20858153  0.86621920     0.15900
O1703       O  0.87356203  0.25267438  0.89163227    -0.26500
C1704       C  0.87001709  0.27106815  0.87383952     0.05700
C1705       C  0.86617143  0.24504556  0.85759318    -0.31400
O1706       O  0.86927026  0.10081616  0.86545464    -0.23200
C1707       C  0.87309899  0.08219648  0.88310672    -0.03200
C1708       C  0.87576954  0.10800077  0.89966745    -0.17600
H1709       H  0.87842062  0.18661162  0.91639894     0.20400
H1710       H  0.86319948  0.16667422  0.84103283     0.18700
H1711       H  0.86317954  0.25204465  0.84159775     0.18700
H1712       H  0.87936341  0.10078153  0.91553358     0.14500
C1713       C  0.97973277  0.48646184  0.89398731     0.30000
C1714       C  0.99898312  0.49058411  0.90632239    -0.36400
C1715       C  0.01935798  0.49684406  0.89597582     0.16000
C1716       C  0.02088303  0.49906681  0.87487572     0.21800
C1717       C  0.00151693  0.49469117  0.86244738    -0.34500
C1718       C  0.98099644  0.48822311  0.87285170     0.15900
O1719       O  0.95900058  0.48104406  0.90065931    -0.26500
C1720       C  0.94657627  0.47894982  0.88365529     0.05700
C1721       C  0.95937504  0.48314424  0.86581111    -0.31400
O1722       O  0.04187243  0.50507802  0.86859307    -0.23200
C1723       C  0.05383726  0.50660071  0.88597085    -0.03200
C1724       C  0.04060725  0.50160546  0.90340546    -0.17600
H1725       H  0.99812007  0.48909221  0.92290517     0.20400
H1726       H  0.00237795  0.49622715  0.84586979     0.18700
H1727       H  0.95354786  0.48319465  0.85005078     0.18700
H1728       H  0.04594368  0.50121083  0.91931309     0.14500
C1729       C  0.86258676  0.60670148  0.51981953     0.30000
C1730       C  0.84977722  0.61043799  0.50165065    -0.36400
C1731       C  0.86186972  0.60797465  0.48306797     0.16000
C1732       C  0.88489859  0.60209952  0.48258667     0.21800
C1733       C  0.89764625  0.59923988  0.50057416    -0.34500
C1734       C  0.88565637  0.60166898  0.51895483     0.15900
O1735       O  0.85471362  0.60285965  0.53876007    -0.26500
C1736       C  0.87309772  0.59539617  0.54994250     0.05700
C1737       C  0.89270910  0.59457726  0.53836901    -0.31400
O1738       O  0.89251255  0.59524194  0.46400008    -0.23200
C1739       C  0.87433548  0.59736919  0.45213356    -0.03200
C1740       C  0.85469822  0.60554935  0.46307975    -0.17600
H1741       H  0.83158247  0.61269647  0.50194961     0.20400
H1742       H  0.91553789  0.59296088  0.50024605     0.18700
H1743       H  0.90952278  0.58650180  0.54333272     0.18700
H1744       H  0.83752684  0.60577943  0.45742895     0.14500
C1745       C  0.97630228  0.49414557  0.60894241     0.30000
C1746       C  0.99555248  0.48870872  0.59683571    -0.36400
C1747       C  0.01566129  0.48105775  0.60741762     0.16000
C1748       C  0.01695104  0.47874503  0.62853160     0.21800
C1749       C  0.99753422  0.48416706  0.64072605    -0.34500
C1750       C  0.97728044  0.49210623  0.63008581     0.15900
O1751       O  0.95580153  0.50100125  0.60201473    -0.26500
C1752       C  0.94322983  0.50377367  0.61885005     0.05700
C1753       C  0.95569927  0.49857623  0.63685750    -0.31400
O1754       O  0.03785873  0.47242664  0.63507225    -0.23200
C1755       C  0.05000485  0.47073634  0.61783877    -0.03200
C1756       C  0.03693345  0.47580282  0.60025110    -0.17600
H1757       H  0.99490706  0.49050249  0.58024922     0.20400
H1758       H  0.99819639  0.48262557  0.65731270     0.18700
H1759       H  0.94964583  0.49842562  0.65252500     0.18700
H1760       H  0.04244923  0.47662059  0.58441744     0.14500
C1761       C  0.87787150  0.52167746  0.73534650     0.30000
C1762       C  0.87533413  0.53393902  0.75586617    -0.36400
C1763       C  0.88146678  0.50616743  0.77092287     0.16000
C1764       C  0.88927156  0.46881560  0.76599438     0.21800
C1765       C  0.89242294  0.45703721  0.74552418    -0.34500
C1766       C  0.88648085  0.48485287  0.73051176     0.15900
O1767       O  0.87186774  0.54181135  0.71888722    -0.26500
C1768       C  0.87694756  0.51778930  0.70331162     0.05700
C1769       C  0.88626620  0.48201521  0.70960621    -0.31400
O1770       O  0.89132795  0.44585283  0.78221070    -0.23200
C1771       C  0.88527054  0.46886606  0.79785217    -0.03200
C1772       C  0.87916464  0.50695918  0.79181945    -0.17600
H1773       H  0.86828896  0.56253995  0.75979678     0.20400
H1774       H  0.89822286  0.42759489  0.74157216     0.18700
H1775       H  0.89143243  0.45717024  0.70019751     0.18700
H1776       H  0.87217178  0.53042570  0.80119586     0.14500
C1777       C  0.86344367  0.10888832  0.48298163     0.30000
C1778       C  0.84999105  0.11120498  0.50078440    -0.36400
C1779       C  0.86149069  0.10872011  0.51971488     0.16000
C1780       C  0.88460303  0.10438284  0.52085997     0.21800
C1781       C  0.89799508  0.10313775  0.50322996    -0.34500
C1782       C  0.88656598  0.10528147  0.48448220     0.15900
O1783       O  0.85620053  0.10457228  0.46383475    -0.26500
C1784       C  0.87499719  0.09813083  0.45312558     0.05700
C1785       C  0.89429741  0.09850465  0.46522606    -0.31400
O1786       O  0.89168735  0.09660121  0.53955518    -0.23200
C1787       C  0.87306287  0.09650548  0.55083653    -0.03200
C1788       C  0.85366710  0.10425882  0.53938686    -0.17600
H1789       H  0.83177479  0.11204281  0.49993141     0.20400
H1790       H  0.91596898  0.09780887  0.50405700     0.18700
H1791       H  0.91136157  0.09120725  0.46071856     0.18700
H1792       H  0.83630599  0.10266091  0.54440687     0.14500
C1793       C  0.87328123  0.76897486  0.63704220     0.30000
C1794       C  0.87277977  0.80482908  0.64795791    -0.36400
C1795       C  0.87422025  0.83936051  0.63613213     0.16000
C1796       C  0.87616842  0.83857873  0.61502096     0.21800
C1797       C  0.87688787  0.80267597  0.60410156    -0.34500
C1798       C  0.87529259  0.76809755  0.61593411     0.15900
O1799       O  0.87137596  0.73334355  0.64501617    -0.26500
C1800       C  0.87216190  0.70918779  0.62886787     0.05700
C1801       C  0.87465614  0.72911055  0.61030993    -0.31400
O1802       O  0.87690010  0.87437168  0.60703191    -0.23200
C1803       C  0.87533794  0.89839847  0.62320632    -0.03200
C1804       C  0.87372102  0.87828201  0.64175998    -0.17600
H1805       H  0.87103906  0.80571903  0.66449338     0.20400
H1806       H  0.87826994  0.80180565  0.58753664     0.18700
H1807       H  0.87546235  0.71675191  0.59498120     0.18700
H1808       H  0.87239086  0.89053022  0.65708172     0.14500
C1809       C  0.87172767  0.26932740  0.63649871     0.30000
C1810       C  0.87026142  0.30519498  0.64725211    -0.36400
C1811       C  0.86979237  0.33946184  0.63521793     0.16000
C1812       C  0.87071579  0.33843694  0.61404569     0.21800
C1813       C  0.87208340  0.30247284  0.60325469    -0.34500
C1814       C  0.87257144  0.26812793  0.61532256     0.15900
O1815       O  0.87220924  0.23388301  0.64476982    -0.26500
C1816       C  0.87338470  0.20951868  0.62876085     0.05700
C1817       C  0.87367887  0.22907204  0.60996397    -0.31400
O1818       O  0.87086866  0.37412008  0.60593654    -0.23200
C1819       C  0.86998606  0.39825104  0.62210482    -0.03200
C1820       C  0.86920699  0.37835956  0.64075470    -0.17600
H1821       H  0.86965419  0.30627715  0.66385379     0.20400
H1822       H  0.87290073  0.30139803  0.58666031     0.18700
H1823       H  0.87419399  0.21638822  0.59469383     0.18700
H1824       H  0.86900952  0.39073815  0.65609842     0.14500
C1825       C  0.97889478  0.99574788  0.62966622     0.30000
C1826       C  0.99835954  0.99210727  0.64197033    -0.36400
C1827       C  0.01854046  0.98353620  0.63148730     0.16000
C1828       C  0.01932746  0.97885559  0.61043354     0.21800
C1829       C  0.99999934  0.98202053  0.59827065    -0.34500
C1830       C  0.98004493  0.99074727  0.60866190     0.15900
O1831       O  0.95818052  0.00404370  0.63592684    -0.26500
C1832       C  0.94615057  0.00449062  0.61858861     0.05700
C1833       C  0.95897142  0.99632276  0.60125741    -0.31400
O1834       O  0.03983545  0.97280202  0.60355910    -0.23200
C1835       C  0.05258234  0.97331471  0.62033787    -0.03200
C1836       C  0.04028380  0.97967477  0.63827480    -0.17600
H1837       H  0.99786999  0.99617873  0.65844931     0.20400
H1838       H  0.00055948  0.97859671  0.58174857     0.18700
H1839       H  0.95346134  0.99427646  0.58542880     0.18700
H1840       H  0.04653899  0.98242765  0.65383675     0.14500
C1841       C  0.88105633  0.02027699  0.73661603     0.30000
C1842       C  0.88123713  0.03380198  0.75708051    -0.36400
C1843       C  0.88208102  0.00444279  0.77235182     0.16000
C1844       C  0.88218955  0.96454023  0.76769101     0.21800
C1845       C  0.88245032  0.95104537  0.74723768    -0.34500
C1846       C  0.88211478  0.98040807  0.73198056     0.15900
O1847       O  0.87931249  0.04249560  0.72004088    -0.26500
C1848       C  0.87976860  0.01669980  0.70452246     0.05700
C1849       C  0.88161438  0.97755049  0.71100878    -0.31400
O1850       O  0.88111276  0.94214488  0.78422909    -0.23200
C1851       C  0.88081441  0.96783357  0.79979547    -0.03200
C1852       C  0.88155247  0.00715393  0.79335294    -0.17600
H1853       H  0.88035948  0.06502988  0.76082568     0.20400
H1854       H  0.88247243  0.91977584  0.74349228     0.18700
H1855       H  0.88155831  0.95094226  0.70170107     0.18700
H1856       H  0.88049372  0.03367065  0.80267377     0.14500
C1857       C  0.36212555  0.86458333  0.48110558     0.30000
C1858       C  0.34864682  0.86485415  0.49895849    -0.36400
C1859       C  0.36021737  0.86359009  0.51791593     0.16000
C1860       C  0.38343716  0.86209924  0.51909777     0.21800
C1861       C  0.39683247  0.86302999  0.50140559    -0.34500
C1862       C  0.38533034  0.86409561  0.48260297     0.15900
O1863       O  0.35505737  0.85960725  0.46190375    -0.26500
C1864       C  0.37405374  0.85605878  0.45107629     0.05700
C1865       C  0.39327989  0.85882392  0.46324687    -0.31400
O1866       O  0.39076815  0.85469614  0.53782162    -0.23200
C1867       C  0.37213808  0.85213050  0.54908309    -0.03200
C1868       C  0.35255892  0.85782656  0.53756019    -0.17600
H1869       H  0.33044355  0.86332015  0.49811939     0.20400
H1870       H  0.41498506  0.86008511  0.50219962     0.18700
H1871       H  0.41060080  0.85388113  0.45870079     0.18700
H1872       H  0.33528475  0.85400672  0.54250604     0.14500
C1873       C  0.26734430  0.85405737  0.64526647     0.30000
C1874       C  0.24819289  0.85764784  0.65770330    -0.36400
C1875       C  0.22781497  0.86491109  0.64748012     0.16000
C1876       C  0.22622534  0.86832992  0.62641810     0.21800
C1877       C  0.24547508  0.86465407  0.61391700    -0.34500
C1878       C  0.26597969  0.85736528  0.62418166     0.15900
O1879       O  0.28813673  0.84858660  0.65179885    -0.26500
C1880       C  0.30045108  0.84808656  0.63473902     0.05700
C1881       C  0.28755046  0.85336831  0.61701820    -0.31400
O1882       O  0.20527866  0.87478463  0.62019899    -0.23200
C1883       C  0.19339603  0.87563067  0.63756429    -0.03200
C1884       C  0.20662113  0.86965673  0.65496594    -0.17600
H1885       H  0.24914991  0.85523780  0.67425595     0.20400
H1886       H  0.24454860  0.86743016  0.59738345     0.18700
H1887       H  0.29331776  0.85541879  0.60129704     0.18700
H1888       H  0.20129747  0.86830258  0.67084361     0.14500
C1889       C  0.36866317  0.36513830  0.48018206     0.30000
C1890       C  0.35570305  0.37049378  0.49817560    -0.36400
C1891       C  0.36685417  0.36373340  0.51706488     0.16000
C1892       C  0.38918592  0.35246536  0.51802798     0.21800
C1893       C  0.40219302  0.34812993  0.50023208    -0.34500
C1894       C  0.39110508  0.35477105  0.48153550     0.15900
O1895       O  0.36116505  0.36463450  0.46090579    -0.26500
C1896       C  0.37916585  0.35392959  0.44990668     0.05700
C1897       C  0.39817297  0.34779397  0.46206469    -0.31400
O1898       O  0.39561450  0.34271196  0.53673280    -0.23200
C1899       C  0.37737389  0.34821619  0.54825427    -0.03200
C1900       C  0.35893449  0.36169956  0.53686975    -0.17600
H1901       H  0.33787779  0.37715323  0.49747466     0.20400
H1902       H  0.41946290  0.33783977  0.50086269     0.18700
H1903       H  0.41443231  0.33642001  0.45735916     0.18700
H1904       H  0.34180174  0.36600758  0.54209019     0.14500
C1905       C  0.37093898  0.52318574  0.63489073     0.30000
C1906       C  0.37059662  0.55897206  0.64587838    -0.36400
C1907       C  0.37243608  0.59357352  0.63413797     0.16000
C1908       C  0.37448848  0.59292069  0.61303419     0.21800
C1909       C  0.37494499  0.55707768  0.60204081    -0.34500
C1910       C  0.37311042  0.52243453  0.61379576     0.15900
O1911       O  0.36937633  0.48746862  0.64282817    -0.26500
C1912       C  0.37066616  0.46339590  0.62667344     0.05700
C1913       C  0.37300500  0.48344781  0.60814322    -0.31400
O1914       O  0.37585466  0.62876154  0.60514575    -0.23200
C1915       C  0.37462091  0.65271744  0.62137710    -0.03200
C1916       C  0.37254709  0.63246461  0.63986593    -0.17600
H1917       H  0.36896313  0.55975281  0.66242491     0.20400
H1918       H  0.37658276  0.55628672  0.58549517     0.18700
H1919       H  0.37436943  0.47113170  0.59283952     0.18700
H1920       H  0.37134978  0.64460638  0.65521972     0.14500
C1921       C  0.37086252  0.09280713  0.61272433     0.30000
C1922       C  0.37331861  0.05674496  0.60219764    -0.36400
C1923       C  0.37024002  0.02240433  0.61394153     0.16000
C1924       C  0.36496763  0.02362887  0.63456933     0.21800
C1925       C  0.36237091  0.05967017  0.64505130    -0.34500
C1926       C  0.36564915  0.09398736  0.63336340     0.15900
O1927       O  0.37384868  0.12837451  0.60493810    -0.26500
C1928       C  0.37063032  0.15266884  0.62078324     0.05700
C1929       C  0.36544491  0.13297064  0.63890563    -0.31400
O1930       O  0.36346610  0.98809403  0.64272136    -0.23200
C1931       C  0.36784153  0.96370888  0.62716897    -0.03200
C1932       C  0.37212374  0.98333828  0.60881156    -0.17600
H1933       H  0.37774753  0.05557377  0.58609209     0.20400
H1934       H  0.35851021  0.06083199  0.66127758     0.18700
H1935       H  0.36238713  0.14547960  0.65395880     0.18700
H1936       H  0.37629395  0.97071439  0.59400913     0.14500
C1937       C  0.22755862  0.36925383  0.62522386     0.30000
C1938       C  0.24672278  0.36498702  0.61260529    -0.36400
C1939       C  0.26713716  0.35579794  0.62267723     0.16000
C1940       C  0.26846165  0.35100489  0.64368169     0.21800
C1941       C  0.24938931  0.35495873  0.65621251    -0.34500
C1942       C  0.22916178  0.36444358  0.64620300     0.15900
O1943       O  0.20671449  0.37766821  0.61922247    -0.26500
C1944       C  0.19492490  0.37851503  0.63667131     0.05700
C1945       C  0.20814885  0.37054386  0.65387253    -0.31400
O1946       O  0.28924536  0.34493180  0.65013292    -0.23200
C1947       C  0.30165431  0.34568936  0.63311591    -0.03200
C1948       C  0.28875410  0.35207711  0.61547900    -0.17600
H1949       H  0.24585156  0.36909783  0.59614604     0.20400
H1950       H  0.25035102  0.35164820  0.67272302     0.18700
H1951       H  0.20288347  0.36847418  0.66974488     0.18700
H1952       H  0.29459026  0.35561397  0.59985282     0.14500
C1953       C  0.36277751  0.62616138  0.98128562     0.30000
C1954       C  0.34965888  0.62392394  0.99933372    -0.36400
C1955       C  0.36162484  0.62406379  0.01811326     0.16000
C1956       C  0.38483909  0.62650166  0.01891074     0.21800
C1957       C  0.39785602  0.62790297  0.00102663    -0.34500
C1958       C  0.38599097  0.62767571  0.98243982     0.15900
O1959       O  0.35530798  0.63166815  0.96225836    -0.26500
C1960       C  0.37408463  0.63656372  0.95125133     0.05700
C1961       C  0.39354099  0.63412701  0.96309088    -0.31400
O1962       O  0.39257035  0.63142322  0.03770353    -0.23200
C1963       C  0.37424341  0.63137918  0.04941996    -0.03200
C1964       C  0.35440748  0.62666144  0.03809648    -0.17600
H1965       H  0.33142369  0.62434283  0.99881897     0.20400
H1966       H  0.41599172  0.63138882  0.00159091     0.18700
H1967       H  0.41072640  0.63990021  0.95836671     0.18700
H1968       H  0.33722361  0.62859834  0.04356050     0.14500
C1969       C  0.26969870  0.63242862  0.85574328     0.30000
C1970       C  0.25019771  0.62746052  0.84380135    -0.36400
C1971       C  0.23023848  0.61967124  0.85458327     0.16000
C1972       C  0.22935230  0.61700702  0.87570540     0.21800
C1973       C  0.24891935  0.62226889  0.88770270    -0.34500
C1974       C  0.26897474  0.63009280  0.87688793     0.15900
O1975       O  0.29027449  0.63819731  0.84870367    -0.26500
C1976       C  0.30303323  0.63989664  0.86552169     0.05700
C1977       C  0.29066243  0.63520161  0.88354377    -0.31400
O1978       O  0.20871378  0.60963339  0.88248492    -0.23200
C1979       C  0.19628067  0.60748669  0.86541938    -0.03200
C1980       C  0.20888223  0.61354776  0.84766642    -0.17600
H1981       H  0.25060246  0.62912115  0.82720740     0.20400
H1982       H  0.24857194  0.62014123  0.90427889     0.18700
H1983       H  0.29688201  0.63407926  0.89916923     0.18700
H1984       H  0.20304112  0.61405946  0.83190745     0.14500
C1985       C  0.38425363  0.71757684  0.76618921     0.30000
C1986       C  0.38382831  0.70397833  0.74574723    -0.36400
C1987       C  0.38341831  0.73331991  0.73046168     0.16000
C1988       C  0.38303190  0.77322797  0.73511152     0.21800
C1989       C  0.38403619  0.78680837  0.75551725    -0.34500
C1990       C  0.38485691  0.75750785  0.77077479     0.15900
O1991       O  0.38282206  0.69540064  0.78278902    -0.26500
C1992       C  0.38302168  0.72130103  0.79825498     0.05700
C1993       C  0.38448288  0.76046800  0.79173239    -0.31400
O1994       O  0.38074421  0.79551552  0.71864497    -0.23200
C1995       C  0.38013351  0.76978659  0.70312136    -0.03200
C1996       C  0.38188615  0.73052547  0.70950956    -0.17600
H1997       H  0.38317115  0.67270680  0.74205065     0.20400
H1998       H  0.38354513  0.81807100  0.75924761     0.18700
H1999       H  0.38376485  0.78712574  0.80097814     0.18700
H2000       H  0.38099194  0.70394286  0.70021472     0.14500
C2001       C  0.36594670  0.12201318  0.98067035     0.30000
C2002       C  0.35303284  0.11801623  0.99871118    -0.36400
C2003       C  0.36506373  0.11930389  0.01739603     0.16000
C2004       C  0.38816710  0.12418781  0.01811185     0.21800
C2005       C  0.40103975  0.12705331  0.00020976    -0.34500
C2006       C  0.38908667  0.12598537  0.98170175     0.15900
O2007       O  0.35812105  0.12776975  0.96182987    -0.26500
C2008       C  0.37656584  0.13548465  0.95084445     0.05700
C2009       C  0.39621699  0.13443298  0.96243948    -0.31400
O2010       O  0.39571831  0.13068742  0.03681244    -0.23200
C2011       C  0.37740849  0.12926377  0.04849965    -0.03200
C2012       C  0.35777101  0.12191545  0.03731237    -0.17600
H2013       H  0.33480433  0.11682544  0.99827326     0.20400
H2014       H  0.41899654  0.13275602  0.00072184     0.18700
H2015       H  0.41309871  0.14248047  0.95769620     0.18700
H2016       H  0.34054567  0.12259179  0.04275412     0.14500
C2017       C  0.37838080  0.89735273  0.88739264     0.30000
C2018       C  0.37900837  0.93357120  0.89803581    -0.36400
C2019       C  0.37815549  0.96782353  0.88587746     0.16000
C2020       C  0.37678723  0.96641284  0.86472631     0.21800
C2021       C  0.37623746  0.93024533  0.85409718    -0.34500
C2022       C  0.37707118  0.89603804  0.86623932     0.15900
O2023       O  0.37888312  0.86174189  0.89566504    -0.26500
C2024       C  0.37783563  0.83730092  0.87961581     0.05700
C2025       C  0.37674144  0.85699151  0.86089053    -0.31400
O2026       O  0.37578674  0.00189417  0.85640653    -0.23200
C2027       C  0.37658873  0.02646337  0.87238614    -0.03200
C2028       C  0.37807518  0.00696348  0.89116134    -0.17600
H2029       H  0.37998427  0.93492812  0.91462039     0.20400
H2030       H  0.37510189  0.92889287  0.83752063     0.18700
H2031       H  0.37593088  0.84437383  0.84561327     0.18700
H2032       H  0.37863884  0.01973092  0.90641343     0.14500
C2033       C  0.36900245  0.39380605  0.86772410     0.30000
C2034       C  0.36873665  0.42581450  0.85401920    -0.36400
C2035       C  0.36997221  0.46363572  0.86292818     0.16000
C2036       C  0.37125365  0.46974188  0.88386829     0.21800
C2037       C  0.37131671  0.43774290  0.89758136    -0.34500
C2038       C  0.37015099  0.39990713  0.88867177     0.15900
O2039       O  0.36924886  0.35585300  0.86274139    -0.26500
C2040       C  0.37050384  0.33743512  0.88075814     0.05700
C2041       C  0.37097398  0.36340376  0.89739959    -0.31400
O2042       O  0.37238995  0.50768427  0.88879289    -0.23200
C2043       C  0.37185481  0.52606252  0.87073993    -0.03200
C2044       C  0.37036621  0.50009458  0.85414563    -0.17600
H2045       H  0.36801031  0.42153081  0.83755597     0.20400
H2046       H  0.37250526  0.44200874  0.91402369     0.18700
H2047       H  0.37262794  0.35639661  0.91355198     0.18700
H2048       H  0.36946801  0.50713512  0.83794811     0.14500
C2049       C  0.23045124  0.11486864  0.85624985     0.30000
C2050       C  0.24928510  0.12432374  0.84424147    -0.36400
C2051       C  0.26971215  0.12882978  0.85482628     0.16000
C2052       C  0.27161910  0.12447068  0.87582500     0.21800
C2053       C  0.25269154  0.11504081  0.88788346    -0.34500
C2054       C  0.23217348  0.11036207  0.87725486     0.15900
O2055       O  0.20967705  0.11010213  0.84947671    -0.26500
C2056       C  0.19777485  0.10227630  0.86630119     0.05700
C2057       C  0.21091313  0.10195628  0.88407894    -0.31400
O2058       O  0.29263137  0.12879577  0.88234049    -0.23200
C2059       C  0.30424937  0.13591848  0.86523136    -0.03200
C2060       C  0.29078217  0.13641690  0.84771194    -0.17600
H2061       H  0.24810564  0.12780126  0.82775189     0.20400
H2062       H  0.25389946  0.11135151  0.90435399     0.18700
H2063       H  0.20547387  0.09741354  0.89975585     0.18700
H2064       H  0.29592255  0.14053750  0.83191302     0.14500
C2065       C  0.38197088  0.21864225  0.76624379     0.30000
C2066       C  0.38204459  0.20486291  0.74585044    -0.36400
C2067       C  0.38247736  0.23401368  0.73049983     0.16000
C2068       C  0.38236589  0.27397401  0.73502365     0.21800
C2069       C  0.38275556  0.28776123  0.75543577    -0.34500
C2070       C  0.38275750  0.25857375  0.77079386     0.15900
O2071       O  0.38037074  0.19652529  0.78282217    -0.26500
C2072       C  0.38060150  0.22237835  0.79829595     0.05700
C2073       C  0.38220201  0.26157103  0.79177853    -0.31400
O2074       O  0.38086121  0.29607344  0.71840930    -0.23200
C2075       C  0.38045244  0.27012038  0.70295664    -0.03200
C2076       C  0.38160557  0.23093531  0.70953394    -0.17600
H2077       H  0.38129228  0.17356983  0.74222058     0.20400
H2078       H  0.38253798  0.31907604  0.75907179     0.18700
H2079       H  0.38184549  0.28823181  0.80103890     0.18700
H2080       H  0.38060513  0.20424147  0.70033557     0.14500
C2081       C  0.62981492  0.61837874  0.51911226     0.30000
C2082       C  0.64292917  0.61063902  0.50141694    -0.36400
C2083       C  0.63220451  0.61663994  0.48223418     0.16000
C2084       C  0.61010110  0.62906642  0.48081069     0.21800
C2085       C  0.59695788  0.63568402  0.49829604    -0.34500
C2086       C  0.60764367  0.63013355  0.51722915     0.15900
O2087       O  0.63701714  0.62026041  0.53845159    -0.26500
C2088       C  0.61911851  0.63343394  0.54887448     0.05700
C2089       C  0.60046341  0.63970313  0.53635445    -0.31400
O2090       O  0.60412708  0.63820542  0.46194431    -0.23200
C2091       C  0.62239171  0.63128861  0.45070244    -0.03200
C2092       C  0.64046426  0.61734973  0.46247293    -0.17600
H2093       H  0.66060976  0.60303907  0.50250972     0.20400
H2094       H  0.57995899  0.64715576  0.49720580     0.18700
H2095       H  0.58440071  0.65259550  0.54053864     0.18700
H2096       H  0.65763006  0.61222132  0.45754690     0.14500
C2097       C  0.76622673  0.60838922  0.64433886     0.30000
C2098       C  0.74733386  0.61695930  0.65641211    -0.36400
C2099       C  0.72699521  0.62220596  0.64583454     0.16000
C2100       C  0.72514674  0.61887396  0.62478407     0.21800
C2101       C  0.74414509  0.61003647  0.61263804    -0.34500
C2102       C  0.76467169  0.60505801  0.62325943     0.15900
O2103       O  0.78699266  0.60424576  0.65114665    -0.26500
C2104       C  0.79914977  0.59812892  0.63430137     0.05700
C2105       C  0.78614060  0.59810141  0.61641877    -0.31400
O2106       O  0.70419750  0.62428243  0.61828142    -0.23200
C2107       C  0.69261778  0.63139341  0.63544491    -0.03200
C2108       C  0.70603567  0.63048651  0.65298807    -0.17600
H2109       H  0.74847744  0.61981667  0.67293962     0.20400
H2110       H  0.74303810  0.60751727  0.59609858     0.18700
H2111       H  0.79178097  0.59489851  0.60070858     0.18700
H2112       H  0.70093072  0.63419002  0.66882776     0.14500
C2113       C  0.51971151  0.74936541  0.60928847     0.30000
C2114       C  0.50085601  0.75931428  0.59746189    -0.36400
C2115       C  0.48041830  0.76218405  0.60799489     0.16000
C2116       C  0.47843392  0.75604916  0.62885440     0.21800
C2117       C  0.49750444  0.74635462  0.64083491    -0.34500
C2118       C  0.51812342  0.74313497  0.63018062     0.15900
O2119       O  0.54021819  0.74391180  0.60219276    -0.26500
C2120       C  0.55221762  0.73386090  0.61862888     0.05700
C2121       C  0.53939317  0.73303339  0.63659356    -0.31400
O2122       O  0.45721588  0.75848934  0.63514020    -0.23200
C2123       C  0.44567259  0.76618960  0.61797179    -0.03200
C2124       C  0.45934925  0.76885862  0.60073096    -0.17600
H2125       H  0.50196301  0.76363887  0.58102668     0.20400
H2126       H  0.49627418  0.74081746  0.65715997     0.18700
H2127       H  0.54489578  0.72584026  0.65200003     0.18700
H2128       H  0.45434779  0.77366432  0.58492997     0.14500
C2129       C  0.61459207  0.12603069  0.51916499     0.30000
C2130       C  0.60141513  0.12686389  0.50130346    -0.36400
C2131       C  0.61306586  0.12512375  0.48264509     0.16000
C2132       C  0.63622722  0.12249694  0.48140357     0.21800
C2133       C  0.64950106  0.12075839  0.49945424    -0.34500
C2134       C  0.63775213  0.12259557  0.51830681     0.15900
O2135       O  0.60713294  0.13264798  0.53789300    -0.26500
C2136       C  0.62556735  0.13276764  0.54954141     0.05700
C2137       C  0.64521168  0.12636985  0.53821982    -0.31400
O2138       O  0.64355935  0.12638743  0.46222059    -0.23200
C2139       C  0.62474803  0.13147389  0.45118034    -0.03200
C2140       C  0.60540785  0.13074488  0.46319949    -0.17600
H2141       H  0.58334308  0.13113260  0.50190103     0.20400
H2142       H  0.66773080  0.12035607  0.49885380     0.18700
H2143       H  0.66247477  0.12807757  0.54356521     0.18700
H2144       H  0.58824929  0.13679765  0.45845582     0.14500
C2145       C  0.62934261  0.88678524  0.63321667     0.30000
C2146       C  0.62916606  0.91903263  0.64677340    -0.36400
C2147       C  0.62809682  0.95661436  0.63767255     0.16000
C2148       C  0.62731299  0.96236303  0.61669132     0.21800
C2149       C  0.62762797  0.93009916  0.60311511    -0.34500
C2150       C  0.62869382  0.89247195  0.61222460     0.15900
O2151       O  0.62915575  0.84894345  0.63836667    -0.26500
C2152       C  0.62848731  0.83018310  0.62040623     0.05700
C2153       C  0.62827996  0.85581603  0.60365275    -0.31400
O2154       O  0.62637859  0.00024354  0.61162444    -0.23200
C2155       C  0.62654300  0.01884674  0.62964891    -0.03200
C2156       C  0.62759096  0.99313688  0.64632357    -0.17600
H2157       H  0.62952805  0.91510758  0.66326461     0.20400
H2158       H  0.62687263  0.93400651  0.58663325     0.18700
H2159       H  0.62701027  0.84847254  0.58750240     0.18700
H2160       H  0.62820577  0.00039838  0.66251458     0.14500
C2161       C  0.62676372  0.38972865  0.61295295     0.30000
C2162       C  0.62617961  0.42544389  0.60187702    -0.36400
C2163       C  0.62579287  0.46026102  0.61366681     0.16000
C2164       C  0.62621668  0.45973491  0.63485739     0.21800
C2165       C  0.62681724  0.42410628  0.64590169    -0.34500
C2166       C  0.62703143  0.38936511  0.63414273     0.15900
O2167       O  0.62632756  0.35375584  0.60509542    -0.26500
C2168       C  0.62632711  0.33005340  0.62144099     0.05700
C2169       C  0.62680050  0.35057377  0.63996177    -0.31400
O2170       O  0.62583274  0.49550203  0.64285333    -0.23200
C2171       C  0.62494571  0.51942167  0.62665659    -0.03200
C2172       C  0.62486001  0.49922131  0.60800888    -0.17600
H2173       H  0.62575253  0.42599811  0.58526316     0.20400
H2174       H  0.62688015  0.42354416  0.66251945     0.18700
H2175       H  0.62635731  0.33868912  0.65539072     0.18700
H2176       H  0.62447368  0.51142787  0.59264690     0.14500
C2177       C  0.72913575  0.12065187  0.64588542     0.30000
C2178       C  0.74833150  0.11495229  0.65806918    -0.36400
C2179       C  0.76855292  0.10877363  0.64751071     0.16000
C2180       C  0.76995436  0.10806295  0.62636527     0.21800
C2181       C  0.75064392  0.11378922  0.61410649    -0.34500
C2182       C  0.73030864  0.12019460  0.62471932     0.15900
O2183       O  0.70850766  0.12627666  0.65270791    -0.26500
C2184       C  0.69612994  0.12974918  0.63575839     0.05700
C2185       C  0.70879401  0.12626053  0.61782362    -0.31400
O2186       O  0.79085828  0.10262286  0.61986142    -0.23200
C2187       C  0.80287757  0.09987846  0.63713465    -0.03200
C2188       C  0.78980481  0.10347013  0.65474086    -0.17600
H2189       H  0.74755704  0.11539244  0.67467343     0.20400
H2190       H  0.75143077  0.11347703  0.59750530     0.18700
H2191       H  0.70290993  0.12698373  0.60208446     0.18700
H2192       H  0.79528440  0.10316648  0.67060870     0.14500
C2193       C  0.47840132  0.23920978  0.60905212     0.30000
C2194       C  0.49715588  0.22873541  0.59721479    -0.36400
C2195       C  0.51780263  0.22693621  0.60758707     0.16000
C2196       C  0.52002449  0.23445144  0.62831857     0.21800
C2197       C  0.50109807  0.24492824  0.64027256    -0.34500
C2198       C  0.48028619  0.24710133  0.62978082     0.15900
O2199       O  0.45767588  0.24326396  0.60214083    -0.26500
C2200       C  0.44581708  0.25411174  0.61851969     0.05700
C2201       C  0.45898998  0.25689679  0.63627424    -0.31400
O2202       O  0.54125720  0.23171501  0.63459396    -0.23200
C2203       C  0.55262376  0.22254437  0.61755244    -0.03200
C2204       C  0.53880803  0.21930239  0.60036399    -0.17600
H2205       H  0.49577963  0.22289836  0.58091167     0.20400
H2206       H  0.50253992  0.25142980  0.65649939     0.18700
H2207       H  0.45367106  0.26488563  0.65161766     0.18700
H2208       H  0.54364393  0.21288373  0.58468597     0.14500
C2209       C  0.63339973  0.87022290  0.01907328     0.30000
C2210       C  0.64647379  0.87510691  0.00112157    -0.36400
C2211       C  0.63508837  0.86965636  0.98223544     0.16000
C2212       C  0.61249104  0.85997695  0.98129959     0.21800
C2213       C  0.59943586  0.85623422  0.99901485    -0.34500
C2214       C  0.61069163  0.86171653  0.01766021     0.15900
O2215       O  0.64090360  0.86790742  0.03828682    -0.26500
C2216       C  0.62260742  0.85802963  0.04908882     0.05700
C2217       C  0.60344392  0.85429538  0.03695294    -0.31400
O2218       O  0.60571772  0.85096947  0.96264504    -0.23200
C2219       C  0.62396092  0.85550368  0.95110292    -0.03200
C2220       C  0.64282837  0.86746026  0.96239166    -0.17600
H2221       H  0.66446741  0.88027505  0.00183134     0.20400
H2222       H  0.58195646  0.84703986  0.99834471     0.18700
H2223       H  0.58696411  0.84359045  0.04146676     0.18700
H2224       H  0.66001385  0.87058403  0.95707647     0.14500
C2225       C  0.72928059  0.86778286  0.85715217     0.30000
C2226       C  0.74847246  0.87546405  0.84541380    -0.36400
C2227       C  0.76860193  0.87989368  0.85633142     0.16000
C2228       C  0.77001373  0.87686401  0.87742422     0.21800
C2229       C  0.75063481  0.86937340  0.88928999    -0.34500
C2230       C  0.73030699  0.86499903  0.87828533     0.15900
O2231       O  0.70872984  0.86352982  0.84989977    -0.26500
C2232       C  0.69617957  0.85799802  0.86651111     0.05700
C2233       C  0.70866985  0.85852270  0.88469254    -0.31400
O2234       O  0.79100611  0.88040428  0.88415449    -0.23200
C2235       C  0.80296621  0.88580630  0.86704733    -0.03200
C2236       C  0.78980349  0.88598508  0.84938870    -0.17600
H2237       H  0.74776164  0.87773920  0.82884633     0.20400
H2238       H  0.75136406  0.86689669  0.90584619     0.18700
H2239       H  0.70260436  0.85573915  0.90029078     0.18700
H2240       H  0.79522282  0.88869510  0.83358522     0.14500
C2241       C  0.52112236  0.75307156  0.89299480     0.30000
C2242       C  0.50253571  0.74390630  0.90533486    -0.36400
C2243       C  0.48228132  0.73651044  0.89496491     0.16000
C2244       C  0.48029384  0.73801820  0.87386395     0.21800
C2245       C  0.49898506  0.74730022  0.86146462    -0.34500
C2246       C  0.51935928  0.75484250  0.87187963     0.15900
O2247       O  0.54175598  0.75973049  0.89958362    -0.26500
C2248       C  0.55354781  0.76607669  0.88255008     0.05700
C2249       C  0.54047285  0.76368047  0.86477670    -0.31400
O2250       O  0.45937688  0.73162177  0.86757458    -0.23200
C2251       C  0.44792942  0.72602384  0.88492783    -0.03200
C2252       C  0.46140880  0.72853722  0.90238996    -0.17600
H2253       H  0.50378508  0.74267129  0.92190842     0.20400
H2254       H  0.49770261  0.74877695  0.84490477     0.18700
H2255       H  0.54589717  0.76647765  0.84898561     0.18700
H2256       H  0.45634791  0.72646730  0.91831997     0.14500
C2257       C  0.61768610  0.77829506  0.76423150     0.30000
C2258       C  0.61916984  0.78898339  0.74340276    -0.36400
C2259       C  0.61653544  0.75811498  0.72910943     0.16000
C2260       C  0.61310275  0.71930777  0.73500590     0.21800
C2261       C  0.61113647  0.70875901  0.75582078    -0.34500
C2262       C  0.61340570  0.73973376  0.77010003     0.15900
O2263       O  0.62073351  0.80205970  0.78008380    -0.26500
C2264       C  0.61801946  0.77868290  0.79637863     0.05700
C2265       C  0.61325082  0.73954977  0.79111393    -0.31400
O2266       O  0.61295457  0.69472506  0.71925309    -0.23200
C2267       C  0.61587579  0.71803981  0.70296314    -0.03200
C2268       C  0.61802703  0.75791533  0.70813691    -0.17600
H2269       H  0.62263478  0.81913639  0.73869312     0.20400
H2270       H  0.60854038  0.67835462  0.76055966     0.18700
H2271       H  0.61094233  0.71446735  0.80124966     0.18700
H2272       H  0.62145478  0.78268039  0.69805675     0.14500
C2273       C  0.63640845  0.36662804  0.01898805     0.30000
C2274       C  0.64952682  0.37146648  0.00104140    -0.36400
C2275       C  0.63790458  0.36844491  0.98211481     0.16000
C2276       C  0.61502411  0.36119702  0.98115661     0.21800
C2277       C  0.60198969  0.35714138  0.99889439    -0.34500
C2278       C  0.61350432  0.36001173  0.01757551     0.15900
O2279       O  0.64388120  0.36328097  0.03816997    -0.26500
C2280       C  0.62539592  0.35448684  0.04896114     0.05700
C2281       C  0.60613812  0.35232021  0.03684152    -0.31400
O2282       O  0.60783491  0.35451960  0.96236590    -0.23200
C2283       C  0.62610689  0.35796413  0.95073352    -0.03200
C2284       C  0.64543608  0.36693339  0.96214836    -0.17600
H2285       H  0.66764229  0.37506787  0.00174965     0.20400
H2286       H  0.58423418  0.34979984  0.99815268     0.18700
H2287       H  0.58937005  0.34315647  0.04137893     0.18700
H2288       H  0.66267456  0.36846535  0.95679230     0.14500
C2289       C  0.62874363  0.60230232  0.88427025     0.30000
C2290       C  0.62837943  0.56657999  0.89525271    -0.36400
C2291       C  0.62750350  0.53194880  0.88342546     0.16000
C2292       C  0.62715907  0.53253476  0.86223832     0.21800
C2293       C  0.62756490  0.56830458  0.85123224    -0.34500
C2294       C  0.62834649  0.60299745  0.86308120     0.15900
O2295       O  0.62857471  0.63802396  0.89232596    -0.26500
C2296       C  0.62804661  0.66208091  0.87616589     0.05700
C2297       C  0.62799089  0.64199412  0.85748360    -0.31400
O2298       O  0.62671425  0.49668510  0.85427745    -0.23200
C2299       C  0.62672971  0.47280567  0.87054225    -0.03200
C2300       C  0.62711910  0.49308412  0.88913616    -0.17600
H2301       H  0.62853952  0.56589127  0.91186856     0.20400
H2302       H  0.62715936  0.56900328  0.83461918     0.18700
H2303       H  0.62698298  0.65424347  0.84215162     0.18700
H2304       H  0.62758735  0.48098052  0.90451859     0.14500
C2305       C  0.62998456  0.03272145  0.86585161     0.30000
C2306       C  0.63158141  0.06848242  0.85502247    -0.36400
C2307       C  0.62936388  0.10303588  0.86673244     0.16000
C2308       C  0.62594477  0.10238949  0.88768842     0.21800
C2309       C  0.62439108  0.06655032  0.89855027    -0.34500
C2310       C  0.62646311  0.03190892  0.88679342     0.15900
O2311       O  0.63123179  0.99706041  0.85782478    -0.26500
C2312       C  0.62839573  0.97292440  0.87374362     0.05700
C2313       C  0.62534937  0.99287718  0.89224189    -0.31400
O2314       O  0.62385979  0.13820816  0.89548017    -0.23200
C2315       C  0.62592037  0.16205557  0.87931508    -0.03200
C2316       C  0.62940077  0.14183702  0.86099204    -0.17600
H2317       H  0.63411968  0.06926575  0.83857288     0.20400
H2318       H  0.62149773  0.06575995  0.91494951     0.18700
H2319       H  0.62269518  0.98048667  0.90737150     0.18700
H2320       H  0.63129922  0.15392146  0.84569859     0.14500
C2321       C  0.77221381  0.37459315  0.87351159     0.30000
C2322       C  0.75327928  0.36309816  0.88510721    -0.36400
C2323       C  0.73244941  0.36283125  0.87469584     0.16000
C2324       C  0.73048524  0.37294921  0.85425183     0.21800
C2325       C  0.74937523  0.38423076  0.84265754    -0.34500
C2326       C  0.77010877  0.38471114  0.85308078     0.15900
O2327       O  0.79334023  0.37649430  0.88002948    -0.26500
C2328       C  0.80491713  0.38807642  0.86355185     0.05700
C2329       C  0.79126146  0.39360743  0.84635792    -0.31400
O2330       O  0.70945356  0.37162535  0.84765779    -0.23200
C2331       C  0.69759299  0.36060299  0.86404819    -0.03200
C2332       C  0.71105956  0.35458759  0.88135053    -0.17600
H2333       H  0.75467884  0.35507628  0.90114329     0.20400
H2334       H  0.74797340  0.39232821  0.82662742     0.18700
H2335       H  0.79629460  0.40195571  0.83098645     0.18700
H2336       H  0.70580374  0.34624170  0.89665428     0.14500
C2337       C  0.47878743  0.24372468  0.87320181     0.30000
C2338       C  0.49788551  0.24997935  0.86070372    -0.36400
C2339       C  0.51836798  0.25760367  0.87105925     0.16000
C2340       C  0.51980149  0.25867640  0.89220207     0.21800
C2341       C  0.50086638  0.25240538  0.90460196    -0.34500
C2342       C  0.48055145  0.24502990  0.89431411     0.15900
O2343       O  0.45780678  0.23705532  0.86699130    -0.26500
C2344       C  0.44612147  0.23414041  0.88443394     0.05700
C2345       C  0.45951671  0.23879921  0.90183521    -0.31400
O2346       O  0.54042374  0.26539513  0.89884605    -0.23200
C2347       C  0.55266021  0.26898477  0.88184719    -0.03200
C2348       C  0.53981715  0.26446608  0.86398929    -0.17600
H2349       H  0.49683576  0.24913544  0.84411763     0.20400
H2350       H  0.50190786  0.25328453  0.92119387     0.18700
H2351       H  0.45438400  0.23841693  0.91778098     0.18700
H2352       H  0.54553597  0.26502503  0.84822111     0.14500
C2353       C  0.61838973  0.27463081  0.76507685     0.30000
C2354       C  0.61704790  0.28599908  0.74433585    -0.36400
C2355       C  0.61681282  0.25510442  0.72986787     0.16000
C2356       C  0.61831063  0.21576366  0.73547568     0.21800
C2357       C  0.61910476  0.20434009  0.75624020    -0.34500
C2358       C  0.61887201  0.23522672  0.77072507     0.15900
O2359       O  0.61987340  0.29869502  0.78100297    -0.26500
C2360       C  0.62080076  0.27451368  0.79714142     0.05700
C2361       C  0.62009973  0.23461040  0.79170900    -0.31400
O2362       O  0.61979166  0.19196712  0.71945297    -0.23200
C2363       C  0.61876060  0.21620827  0.70332785    -0.03200
C2364       C  0.61666669  0.25587831  0.70886062    -0.17600
H2365       H  0.61668181  0.31683862  0.73978371     0.20400
H2366       H  0.62030976  0.17354898  0.76076465     0.18700
H2367       H  0.62127384  0.20904585  0.80168413     0.18700
H2368       H  0.61641001  0.28154976  0.69890723     0.14500
loop_ 
_geom_bond_atom_site_label_1 
_geom_bond_atom_site_label_2 
_geom_bond_distance 
_geom_bond_site_symmetry_2 
_ccdc_geom_bond_type 
O1           Ni7   1.922       .  S
O1           C22   1.268       .  A
O2          Ni25   1.921       .  S
O2           C11   1.271       .  A
O3           Ni7   1.897       .  S
O3          Ni25   1.904       .  S
O3          Ni19   1.908       .  S
O3           H26   0.967       .  S
C4           O21   1.276       .  A
C4           O13   1.272       .  A
C4         C2299   1.467       .  S
O5          Ni24   1.925       .  S
O5           C11   1.270       .  A
O6          Ni24   1.912       .  S
O6            C8   1.271       .  A
Ni7          O10   1.918       .  S
Ni7          O12   1.901       .  S
C8           O18   1.277       .  A
C8         C2331   1.481       .  S
O9          Ni25   1.924       .  S
O9           C15   1.281       .  A
O10          C15   1.277       .  A
C11        C2360   1.474       .  S
O12          C14   1.266       .  A
O13         Ni24   1.913       .  S
C14          O20   1.275       .  A
C14        C2347   1.480       .  S
C15        C2315   1.466       .  S
H16          O17   0.966       .  S
O17         Ni25   1.923       .  S
O17         Ni19   1.924       .  S
O17         Ni24   1.910       .  S
O18         Ni19   1.945       .  S
Ni19         O23   1.938       .  S
Ni19         O21   1.923       .  S
O20         Ni25   1.947       .  S
C22          O23   1.273       .  A
C22        C2283   1.477       .  S
O27         Ni33   1.922       .  S
O27          C48   1.267       .  A
O28         Ni51   1.919       .  S
O28          C37   1.271       .  A
O29         Ni33   1.899       .  S
O29         Ni51   1.907       .  S
O29         Ni45   1.906       .  S
O29          H52   0.967       .  S
C30          O47   1.273       .  A
C30          O39   1.271       .  A
C30        C2312   1.466       .  S
O31         Ni50   1.925       .  S
O31          C37   1.270       .  A
O32         Ni50   1.905       .  S
O32          C34   1.270       .  A
Ni33         O36   1.913       .  S
Ni33         O38   1.900       .  S
C34          O44   1.274       .  A
C34        C2232   1.470       .  S
O35         Ni51   1.930       .  S
O35          C41   1.280       .  A
O36          C41   1.275       .  A
C37        C2264   1.475       .  S
O38          C40   1.266       .  A
O39         Ni50   1.916       .  S
C40          O46   1.273       .  A
C40        C2248   1.473       .  S
C41        C2296   1.467       .  S
H42          O43   0.966       .  S
O43         Ni51   1.924       .  S
O43         Ni45   1.927       .  S
O43         Ni50   1.913       .  S
O44         Ni45   1.935       .  S
Ni45         O49   1.930       .  S
Ni45         O47   1.915       .  S
O46         Ni51   1.937       .  S
C48          O49   1.269       .  A
C48        C2219   1.473       .  S
O53         Ni59   1.926       .  S
O53          C74   1.269       .  A
O54         Ni77   1.924       .  S
O54          C63   1.272       .  A
O55         Ni59   1.901       .  S
O55         Ni77   1.909       .  S
O55         Ni71   1.910       .  S
O55          H78   0.966       .  S
C56          O73   1.276       .  A
C56          O65   1.272       .  A
C56        C2155   1.469       .  S
O57         Ni76   1.921       .  S
O57          C63   1.269       .  A
O58         Ni76   1.907       .  S
O58          C60   1.270       .  A
Ni59         O62   1.918       .  S
Ni59         O64   1.905       .  S
C60          O70   1.275       .  A
C60        C2184   1.474       .  S
O61         Ni77   1.928       .  S
O61          C67   1.281       .  A
O62          C67   1.276       .  A
C63        C2363   1.474       .  S
O64          C66   1.268       .  A
O65         Ni76   1.910       .  S
C66          O72   1.273       .  A
C66        C2203   1.479       .  S
C67        C2168   1.469       .  S
H68          O69   0.966       .  S
O69         Ni77   1.924       .  S
O69         Ni71   1.925       .  S
O69         Ni76   1.909       .  S
O70         Ni71   1.936       .  S
Ni71         O75   1.934       .  S
Ni71         O73   1.923       .  S
O72         Ni77   1.939       .  S
C74          O75   1.272       .  A
C74        C2136   1.478       .  S
O79         Ni85   1.924       .  S
O79         C100   1.270       .  A
O80        Ni103   1.921       .  S
O80          C89   1.271       .  A
O81         Ni85   1.899       .  S
O81        Ni103   1.902       .  S
O81         Ni97   1.902       .  S
O81         H104   0.966       .  S
C82          O99   1.269       .  A
C82          O91   1.268       .  A
C82        C2171   1.467       .  S
O83        Ni102   1.921       .  S
O83          C89   1.269       .  A
O84        Ni102   1.905       .  S
O84          C86   1.273       .  A
Ni85         O88   1.911       .  S
Ni85         O90   1.906       .  S
C86          O96   1.280       .  A
C86        C2107   1.478       .  S
O87        Ni103   1.933       .  S
O87          C93   1.282       .  A
O88          C93   1.276       .  A
C89        C2267   1.475       .  S
O90          C92   1.267       .  A
O91        Ni102   1.916       .  S
C92          O98   1.272       .  A
C92        C2120   1.476       .  S
C93        C2152   1.469       .  S
H94          O95   0.966       .  S
O95        Ni103   1.938       .  S
O95         Ni97   1.934       .  S
O95        Ni102   1.914       .  S
O96         Ni97   1.952       .  S
Ni97        O101   1.937       .  S
Ni97         O99   1.913       .  S
O98        Ni103   1.936       .  S
C100        O101   1.272       .  A
C100       C2088   1.483       .  S
O105       Ni111   1.926       .  S
O105        C126   1.270       .  A
O106       Ni129   1.927       .  S
O106        C115   1.273       .  A
O107       Ni111   1.899       .  S
O107       Ni129   1.908       .  S
O107       Ni123   1.906       .  S
O107        H130   0.967       .  S
C108        O125   1.273       .  A
C108        O117   1.273       .  A
C108       C2027   1.468       .  S
O109       Ni128   1.918       .  S
O109        C115   1.268       .  A
O110       Ni128   1.902       .  S
O110        C112   1.269       .  A
Ni111       O114   1.917       .  S
Ni111       O116   1.903       .  S
C112        O122   1.274       .  A
C112       C2059   1.475       .  S
O113       Ni129   1.930       .  S
O113        C119   1.281       .  A
O114        C119   1.277       .  A
C115       C2072   1.473       .  S
O116        C118   1.268       .  A
O117       Ni128   1.919       .  S
C118        O124   1.273       .  A
C118       C2344   1.480       .  S
C119       C2040   1.471       .  S
H120        O121   0.966       .  S
O121       Ni129   1.926       .  S
O121       Ni123   1.920       .  S
O121       Ni128   1.908       .  S
O122       Ni123   1.940       .  S
Ni123       O127   1.923       .  S
Ni123       O125   1.916       .  S
O124       Ni129   1.942       .  S
C126        O127   1.268       .  A
C126       C2008   1.471       .  S
O131       Ni137   1.924       .  S
O131        C152   1.269       .  A
O132       Ni155   1.925       .  S
O132        C141   1.271       .  A
O133       Ni137   1.903       .  S
O133       Ni155   1.911       .  S
O133       Ni149   1.915       .  S
O133        H156   0.966       .  S
C134        O151   1.277       .  A
C134        O143   1.274       .  A
C134       C2043   1.470       .  S
O135       Ni154   1.919       .  S
O135        C141   1.268       .  A
O136       Ni154   1.910       .  S
O136        C138   1.270       .  A
Ni137       O140   1.922       .  S
Ni137       O142   1.899       .  S
C138        O148   1.274       .  A
C138       C1976   1.476       .  S
O139       Ni155   1.923       .  S
O139        C145   1.278       .  A
O140        C145   1.276       .  A
C141       C1992   1.472       .  S
O142        C144   1.267       .  A
O143       Ni154   1.913       .  S
C144        O150   1.273       .  A
C144       C2251   1.474       .  S
C145       C2024   1.470       .  S
H146        O147   0.966       .  S
O147       Ni155   1.920       .  S
O147       Ni149   1.918       .  S
O147       Ni154   1.908       .  S
O148       Ni149   1.935       .  S
Ni149       O153   1.933       .  S
Ni149       O151   1.925       .  S
O150       Ni155   1.937       .  S
C152        O153   1.271       .  A
C152       C1960   1.477       .  S
O157       Ni163   1.928       .  S
O157        C178   1.269       .  A
O158       Ni181   1.927       .  S
O158        C167   1.273       .  A
O159       Ni163   1.900       .  S
O159       Ni181   1.907       .  S
O159       Ni175   1.904       .  S
O159        H182   0.967       .  S
C160        O177   1.272       .  A
C160        O169   1.270       .  A
C160       C1912   1.468       .  S
O161       Ni180   1.919       .  S
O161        C167   1.268       .  A
O162       Ni180   1.905       .  S
O162        C164   1.270       .  A
Ni163       O166   1.913       .  S
Ni163       O168   1.904       .  S
C164        O174   1.280       .  A
C164       C1947   1.481       .  S
O165       Ni181   1.931       .  S
O165        C171   1.282       .  A
O166        C171   1.276       .  A
C167       C2075   1.475       .  S
O168        C170   1.267       .  A
O169       Ni180   1.916       .  S
C170        O176   1.274       .  A
C170       C2200   1.479       .  S
C171       C1928   1.466       .  S
H172        O173   0.966       .  S
O173       Ni181   1.928       .  S
O173       Ni175   1.931       .  S
O173       Ni180   1.913       .  S
O174       Ni175   1.955       .  S
Ni175       O179   1.937       .  S
Ni175       O177   1.915       .  S
O176       Ni181   1.944       .  S
C178        O179   1.273       .  A
C178       C1899   1.482       .  S
O183       Ni189   1.932       .  S
O183        C204   1.269       .  A
O184       Ni207   1.924       .  S
O184        C193   1.272       .  A
O185       Ni189   1.907       .  S
O185       Ni207   1.914       .  S
O185       Ni201   1.906       .  S
O185        H208   0.967       .  S
C186        O203   1.272       .  A
C186        O195   1.271       .  A
C186       C1931   1.466       .  S
O187       Ni206   1.921       .  S
O187        C193   1.269       .  A
O188       Ni206   1.904       .  S
O188        C190   1.269       .  A
Ni189       O192   1.920       .  S
Ni189       O194   1.899       .  S
C190        O200   1.277       .  A
C190       C1880   1.477       .  S
O191       Ni207   1.926       .  S
O191        C197   1.280       .  A
O192        C197   1.276       .  A
C193       C1995   1.474       .  S
O194        C196   1.267       .  A
O195       Ni206   1.917       .  S
C196        O202   1.272       .  A
C196       C2123   1.477       .  S
C197       C1915   1.470       .  S
H198        O199   0.966       .  S
O199       Ni207   1.927       .  S
O199       Ni201   1.926       .  S
O199       Ni206   1.914       .  S
O200       Ni201   1.946       .  S
Ni201       O205   1.928       .  S
Ni201       O203   1.914       .  S
O202       Ni207   1.941       .  S
C204        O205   1.270       .  A
C204       C1867   1.477       .  S
O209       Ni215   1.927       .  S
O209        C230   1.268       .  A
O210       Ni233   1.927       .  S
O210        C219   1.273       .  A
O211       Ni215   1.898       .  S
O211       Ni233   1.909       .  S
O211       Ni227   1.907       .  S
O211        H234   0.966       .  S
C212        O229   1.274       .  A
C212        O221   1.272       .  A
C212       C1816   1.463       .  S
O213       Ni232   1.919       .  S
O213        C219   1.268       .  A
O214       Ni232   1.905       .  S
O214        C216   1.270       .  A
Ni215       O218   1.917   1_545  S
Ni215       O220   1.895       .  S
C216        O226   1.274       .  A
C216       C2187   1.475       .  S
O217       Ni233   1.927   1_565  S
O217        C223   1.281       .  A
O218        C223   1.277       .  A
C219       C1848   1.474       .  S
O220        C222   1.266       .  A
O221       Ni232   1.911       .  S
C222        O228   1.273       .  A
C222       C1832   1.474       .  S
C223       C1803   1.467       .  S
H224        O225   0.966       .  S
O225       Ni233   1.922       .  S
O225       Ni227   1.919       .  S
O225       Ni232   1.905       .  S
O226       Ni227   1.936       .  S
Ni227       O231   1.924       .  S
Ni227       O229   1.918       .  S
O228       Ni233   1.940       .  S
C230        O231   1.268       .  A
C230       C1787   1.470       .  S
O235       Ni241   1.920       .  S
O235        C256   1.268       .  A
O236       Ni259   1.918       .  S
O236        C245   1.270       .  A
O237       Ni241   1.897       .  S
O237       Ni259   1.905       .  S
O237       Ni253   1.910       .  S
O237        H260   0.966       .  S
C238        O255   1.277       .  A
C238        O247   1.274       .  A
C238       C1800   1.468       .  S
O239       Ni258   1.920       .  S
O239        C245   1.268       .  A
O240       Ni258   1.906       .  S
O240        C242   1.269       .  A
Ni241       O244   1.915       .  S
Ni241       O246   1.903       .  S
C242        O252   1.275       .  A
C242       C2104   1.476       .  S
O243       Ni259   1.925       .  S
O243        C249   1.281       .  A
O244        C249   1.276       .  A
C245       C1768   1.471       .  S
O246        C248   1.266       .  A
O247       Ni258   1.915       .  S
C248        O254   1.273       .  A
C248       C1752   1.478       .  S
C249       C1819   1.464       .  S
H250        O251   0.966       .  S
O251       Ni259   1.920       .  S
O251       Ni253   1.916       .  S
O251       Ni258   1.906       .  S
O252       Ni253   1.940       .  S
Ni253       O257   1.926       .  S
Ni253       O255   1.924       .  S
O254       Ni259   1.942       .  S
C256        O257   1.269       .  A
C256       C1736   1.471       .  S
O261       Ni267   1.922       .  S
O261        C282   1.268       .  A
O262       Ni285   1.913       .  S
O262        C271   1.268       .  A
O263       Ni267   1.904       .  S
O263       Ni285   1.901       .  S
O263       Ni279   1.904       .  S
O263        H286   0.967       .  S
C264        O281   1.270       .  A
C264        O273   1.269       .  A
C264       C1704   1.473       .  S
O265       Ni284   1.919       .  S
O265        C271   1.268       .  A
O266       Ni284   1.908       .  S
O266        C268   1.273       .  A
Ni267       O270   1.919       .  S
Ni267       O272   1.907       .  S
C268        O278   1.281       .  A
C268       C2328   1.480       .  S
O269       Ni285   1.924       .  S
O269        C275   1.278       .  A
O270        C275   1.276       .  A
C271       C1771   1.469       .  S
O272        C274   1.267       .  A
O273       Ni284   1.920       .  S
C274        O280   1.273       .  A
C274       C1720   1.480       .  S
C275       C1688   1.468       .  S
H276        O277   0.969       .  S
O277       Ni285   1.939       .  S
O277       Ni279   1.930       .  S
O277       Ni284   1.915       .  S
O278       Ni279   1.956       .  S
Ni279       O283   1.935       .  S
Ni279       O281   1.917       .  S
O280       Ni285   1.941       .  S
C282        O283   1.272       .  A
C282       C1672   1.475       .  S
O287       Ni293   1.926       .  S
O287        C308   1.268       .  A
O288       Ni311   1.931       .  S
O288        C297   1.273       .  A
O289       Ni293   1.901       .  S
O289       Ni311   1.909       .  S
O289       Ni305   1.908       .  S
O289        H312   0.967       .  S
C290        O307   1.274       .  A
C290        O299   1.271       .  A
C290       C1691   1.467       .  S
O291       Ni310   1.918       .  S
O291        C297   1.267       .  A
O292       Ni310   1.900       .  S
O292        C294   1.269       .  A
Ni293       O296   1.916   1_565  S
Ni293       O298   1.900       .  S
C294        O304   1.273       .  A
C294       C2235   1.472       .  S
O295       Ni311   1.932   1_545  S
O295        C301   1.282       .  A
O296        C301   1.277       .  A
C297       C1851   1.476       .  S
O298        C300   1.266       .  A
O299       Ni310   1.915       .  S
C300        O306   1.274       .  A
C300       C1659   1.474       .  S
C301       C1707   1.472       .  S
H302        O303   0.966       .  S
O303       Ni311   1.927       .  S
O303       Ni305   1.926       .  S
O303       Ni310   1.911       .  S
O304       Ni305   1.937       .  S
Ni305       O309   1.929       .  S
Ni305       O307   1.918       .  S
O306       Ni311   1.939       .  S
C308        O309   1.270       .  A
C308       C1640   1.473       .  S
O313       Ni319   1.923       .  S
O313        C334   1.268       .  A
O314       Ni337   1.927       .  S
O314        C323   1.273       .  A
O315       Ni319   1.896       .  S
O315       Ni337   1.906       .  S
O315       Ni331   1.912       .  S
O315        H338   0.967       .  S
C316        O333   1.278       .  A
C316        O325   1.275       .  A
C316       C1608   1.469       .  S
O317       Ni336   1.921       .  S
O317        C323   1.269       .  A
O318       Ni336   1.909       .  S
O318        C320   1.269       .  A
Ni319       O322   1.921   1_545  S
Ni319       O324   1.903       .  S
C320        O330   1.275       .  A
C320       C2056   1.476       .  S
O321       Ni337   1.923   1_565  S
O321        C327   1.280       .  A
O322        C327   1.278       .  A
C323       C1624   1.476       .  S
O324        C326   1.267       .  A
O325       Ni336   1.913       .  S
C326        O332   1.274       .  A
C326       C1656   1.479       .  S
C327       C1592   1.468       .  S
H328        O329   0.966       .  S
O329       Ni337   1.918       .  S
O329       Ni331   1.916       .  S
O329       Ni336   1.902       .  S
O330       Ni331   1.937       .  S
Ni331       O335   1.932       .  S
Ni331       O333   1.926       .  S
O332       Ni337   1.943       .  S
C334        O335   1.272       .  A
C334       C1579   1.473       .  S
O339       Ni345   1.918       .  S
O339        C360   1.267       .  A
O340       Ni363   1.928       .  S
O340        C349   1.273       .  A
O341       Ni345   1.896       .  S
O341       Ni363   1.906       .  S
O341       Ni357   1.910       .  S
O341        H364   0.967       .  S
C342        O359   1.276       .  A
C342        O351   1.274       .  A
C342       C1595   1.469       .  S
O343       Ni362   1.926       .  S
O343        C349   1.271       .  A
O344       Ni362   1.908       .  S
O344        C346   1.271       .  A
Ni345       O348   1.913       .  S
Ni345       O350   1.905       .  S
C346        O356   1.278       .  A
C346       C1979   1.482       .  S
O347       Ni363   1.935       .  S
O347        C353   1.283       .  A
O348        C353   1.277       .  A
C349       C1560   1.479       .  S
O350        C352   1.267       .  A
O351       Ni362   1.919       .  S
C352        O358   1.273       .  A
C352       C1723   1.482       .  S
C353       C1611   1.470       .  S
H354        O355   0.966       .  S
O355       Ni363   1.927       .  S
O355       Ni357   1.922       .  S
O355       Ni362   1.904       .  S
O356       Ni357   1.946       .  S
Ni357       O361   1.938       .  S
Ni357       O359   1.920       .  S
O358       Ni363   1.941       .  S
C360        O361   1.273       .  A
C360       C1544   1.476       .  S
O365       Ni371   1.925       .  S
O365        C386   1.269       .  A
O366       Ni389   1.928       .  S
O366        C375   1.273       .  A
O367       Ni371   1.901       .  S
O367       Ni389   1.911       .  S
O367       Ni383   1.909       .  S
O367        H390   0.967       .  S
C368        O385   1.276       .  A
C368        O377   1.273       .  A
C368       C1531   1.467       .  S
O369       Ni388   1.928       .  S
O369        C375   1.271       .  A
O370       Ni388   1.908       .  S
O370        C372   1.271       .  A
Ni371       O374   1.917       .  S
Ni371       O376   1.904       .  S
C372        O382   1.277       .  A
C372       C1944   1.484       .  S
O373       Ni389   1.924       .  S
O373        C379   1.279       .  A
O374        C379   1.276       .  A
C375       C1563   1.479       .  S
O376        C378   1.268       .  A
O377       Ni388   1.918       .  S
C378        O384   1.275       .  A
C378       C1755   1.485       .  S
C379       C1515   1.466       .  S
H380        O381   0.966       .  S
O381       Ni389   1.920       .  S
O381       Ni383   1.923       .  S
O381       Ni388   1.909       .  S
O382       Ni383   1.948       .  S
Ni383       O387   1.938       .  S
Ni383       O385   1.918       .  S
O384       Ni389   1.949       .  S
C386        O387   1.272       .  A
C386       C1496   1.482       .  S
O391       Ni397   1.919       .  S
O391        C412   1.267       .  A
O392       Ni415   1.923       .  S
O392        C401   1.271       .  A
O393       Ni397   1.905       .  S
O393       Ni415   1.911       .  S
O393       Ni409   1.908       .  S
O393        H416   0.967       .  S
C394        O411   1.273       .  A
C394        O403   1.269       .  A
C394       C1512   1.465       .  S
O395       Ni414   1.923       .  S
O395        C401   1.269       .  A
O396       Ni414   1.907       .  S
O396        C398   1.272       .  A
Ni397       O400   1.916   1_565  S
Ni397       O402   1.897       .  S
C398        O408   1.277       .  A
C398       C1883   1.478       .  S
O399       Ni415   1.925   1_545  S
O399        C405   1.280       .  A
O400        C405   1.275       .  A
C401       C1627   1.476       .  S
O402        C404   1.265       .  A
O403       Ni414   1.910       .  S
C404        O410   1.270       .  A
C404       C1835   1.469       .  S
C405       C1528   1.467       .  S
H406        O407   0.966       .  S
O407       Ni415   1.927       .  S
O407       Ni409   1.931       .  S
O407       Ni414   1.912       .  S
O408       Ni409   1.943       .  S
Ni409       O413   1.941       .  S
Ni409       O411   1.917       .  S
O410       Ni415   1.933       .  S
C412        O413   1.272       .  A
C412       C1480   1.482       .  S
O417       Ni423   1.923       .  S
O417        C438   1.269       .  A
O418       Ni441   1.926       .  S
O418        C427   1.269       .  A
O419       Ni423   1.913       .  S
O419       Ni441   1.928       .  S
O419       Ni435   1.926       .  S
O419        H442   0.966       .  S
C420        O437   1.280       .  A
C420        O429   1.276       .  A
C420       C1416   1.467       .  S
O421       Ni440   1.925       .  S
O421        C427   1.268       .  A
O422       Ni440   1.904       .  S
O422        C424   1.266       .  A
Ni423       O426   1.915       .  S
Ni423       O428   1.909       .  S
C424        O434   1.273       .  A
C424       C1451   1.476       .  S
O425       Ni441   1.916       .  S
O425        C431   1.272       .  A
O426        C431   1.270       .  A
C427       C2011   1.470       .  S
O428        C430   1.271       .  A
O429       Ni440   1.918       .  S
C430        O436   1.277       .  A
C430       C1432   1.478       .  S
C431       C1403   1.466       .  S
H432        O433   0.966       .  S
O433       Ni441   1.905       .  S
O433       Ni435   1.904       .  S
O433       Ni440   1.903       .  S
O434       Ni435   1.938       .  S
Ni435       O439   1.919       .  S
Ni435       O437   1.924       .  S
O436       Ni441   1.943       .  S
C438        O439   1.270       .  A
C438       C1464   1.473       .  S
O443       Ni449   1.929       .  S
O443        C464   1.271       .  A
O444       Ni467   1.934       .  S
O444        C453   1.271       .  A
O445       Ni449   1.909       .  S
O445       Ni467   1.926       .  S
O445       Ni461   1.924       .  S
O445        H468   0.966       .  S
C446        O463   1.282       .  A
C446        O455   1.276       .  A
C446       C1400   1.467       .  S
O447       Ni466   1.924       .  S
O447        C453   1.267       .  A
O448       Ni466   1.901       .  S
O448        C450   1.266       .  A
Ni449       O452   1.917       .  S
Ni449       O454   1.910       .  S
C450        O460   1.273       .  A
C450       C1368   1.475       .  S
O451       Ni467   1.917       .  S
O451        C457   1.274       .  A
O452        C457   1.273       .  A
C453       C1963   1.476       .  S
O454        C456   1.271       .  A
O455       Ni466   1.913       .  S
C456        O462   1.277       .  A
C456       C1352   1.479       .  S
C457       C1419   1.466       .  S
H458        O459   0.967       .  S
O459       Ni467   1.907       .  S
O459       Ni461   1.907       .  S
O459       Ni466   1.900       .  S
O460       Ni461   1.939       .  S
Ni461       O465   1.922       .  S
Ni461       O463   1.930       .  S
O462       Ni467   1.943       .  S
C464        O465   1.272       .  A
C464       C1387   1.479       .  S
O469       Ni475   1.922       .  S
O469        C490   1.268       .  A
O470       Ni493   1.946       .  S
O470        C479   1.274       .  A
O471       Ni475   1.910       .  S
O471       Ni493   1.931       .  S
O471       Ni487   1.925       .  S
O471        H494   0.966       .  S
C472        O489   1.280       .  A
C472        O481   1.277       .  A
C472       C1304   1.469       .  S
O473       Ni492   1.920       .  S
O473        C479   1.267       .  A
O474       Ni492   1.897       .  S
O474        C476   1.266       .  A
Ni475       O478   1.911       .  S
Ni475       O480   1.900       .  S
C476        O486   1.272       .  A
C476       C1339   1.478       .  S
O477       Ni493   1.921       .  S
O477        C483   1.275       .  A
O478        C483   1.271       .  A
C479       C1896   1.485       .  S
O480        C482   1.270       .  A
O481       Ni492   1.918       .  S
C482        O488   1.278       .  A
C482       C1320   1.478       .  S
C483       C1291   1.468       .  S
H484        O485   0.967       .  S
O485       Ni493   1.912       .  S
O485       Ni487   1.908       .  S
O485       Ni492   1.900       .  S
O486       Ni487   1.942       .  S
Ni487       O491   1.920       .  S
Ni487       O489   1.928       .  S
O488       Ni493   1.950       .  S
C490        O491   1.270       .  A
C490       C1467   1.474       .  S
O495       Ni501   1.930       .  S
O495        C516   1.271       .  A
O496       Ni519   1.936       .  S
O496        C505   1.271       .  A
O497       Ni501   1.917       .  S
O497       Ni519   1.929       .  S
O497       Ni513   1.924       .  S
O497        H520   0.966       .  S
C498        O515   1.278       .  A
C498        O507   1.276       .  A
C498       C1288   1.468       .  S
O499       Ni518   1.925       .  S
O499        C505   1.268       .  A
O500       Ni518   1.901       .  S
O500        C502   1.267       .  A
Ni501       O504   1.922       .  S
Ni501       O506   1.913       .  S
C502        O512   1.274       .  A
C502       C1275   1.479       .  S
O503       Ni519   1.914       .  S
O503        C509   1.273       .  A
O504        C509   1.272       .  A
C505       C1864   1.480       .  S
O506        C508   1.272       .  A
O507       Ni518   1.915       .  S
C508        O514   1.277       .  A
C508       C1256   1.484       .  S
C509       C1307   1.469       .  S
H510        O511   0.966       .  S
O511       Ni519   1.906       .  S
O511       Ni513   1.912       .  S
O511       Ni518   1.905       .  S
O512       Ni513   1.942       .  S
Ni513       O517   1.920       .  S
Ni513       O515   1.925       .  S
O514       Ni519   1.950       .  S
C516        O517   1.271       .  A
C516       C1384   1.477       .  S
O521       Ni527   1.924       .  S
O521        C542   1.270       .  A
O522       Ni545   1.936       .  S
O522        C531   1.271       .  A
O523       Ni527   1.915       .  S
O523       Ni545   1.930       .  S
O523       Ni539   1.939       .  S
O523        H546   0.966       .  S
C524        O541   1.280       .  A
C524        O533   1.276       .  A
C524       C1211   1.473       .  S
O525       Ni544   1.922       .  S
O525        C531   1.269       .  A
O526       Ni544   1.902       .  S
O526        C528   1.267       .  A
Ni527       O530   1.922       .  S
Ni527       O532   1.904       .  S
C528        O538   1.273       .  A
C528       C1448   1.477       .  S
O529       Ni545   1.918       .  S
O529        C535   1.271       .  A
O530        C535   1.270       .  A
C531       C2280   1.479       .  S
O532        C534   1.273       .  A
O533       Ni544   1.920       .  S
C534        O540   1.279       .  A
C534       C1227   1.474       .  S
C535       C1192   1.473       .  S
H536        O537   0.966       .  S
O537       Ni545   1.907       .  S
O537       Ni539   1.904       .  S
O537       Ni544   1.901       .  S
O538       Ni539   1.939       .  S
Ni539       O543   1.920       .  S
Ni539       O541   1.931       .  S
O540       Ni545   1.949       .  S
C542        O543   1.271       .  A
C542       C1240   1.477       .  S
O547       Ni553   1.925       .  S
O547        C568   1.270       .  A
O548       Ni571   1.936       .  S
O548        C557   1.270       .  A
O549       Ni553   1.918       .  S
O549       Ni571   1.935       .  S
O549       Ni565   1.939       .  S
O549        H572   0.966       .  S
C550        O567   1.280       .  A
C550        O559   1.276       .  A
C550       C1195   1.473       .  S
O551       Ni570   1.919       .  S
O551        C557   1.267       .  A
O552       Ni570   1.897       .  S
O552        C554   1.266       .  A
Ni553       O556   1.920       .  S
Ni553       O558   1.909       .  S
C554        O564   1.272       .  A
C554       C1371   1.476       .  S
O555       Ni571   1.915       .  S
O555        C561   1.270       .  A
O556        C561   1.269       .  A
C557       C2216   1.478       .  S
O558        C560   1.274       .  A
O559       Ni570   1.916       .  S
C560        O566   1.277       .  A
C560       C1163   1.478       .  S
C561       C1208   1.472       .  S
H562        O563   0.966       .  S
O563       Ni571   1.904       .  S
O563       Ni565   1.906       .  S
O563       Ni570   1.902       .  S
O564       Ni565   1.940       .  S
Ni565       O569   1.922       .  S
Ni565       O567   1.932       .  S
O566       Ni571   1.944       .  S
C568        O569   1.271       .  A
C568       C1179   1.477       .  S
O573       Ni579   1.926       .  S
O573        C594   1.270       .  A
O574       Ni597   1.939       .  S
O574        C583   1.273       .  A
O575       Ni579   1.912       .  S
O575       Ni597   1.931       .  S
O575       Ni591   1.920       .  S
O575        H598   0.966       .  S
C576        O593   1.279       .  A
C576        O585   1.277       .  A
C576       C1128   1.467       .  S
O577       Ni596   1.930       .  S
O577        C583   1.270       .  A
O578       Ni596   1.906       .  S
O578        C580   1.268       .  A
Ni579       O582   1.911       .  S
Ni579       O584   1.911       .  S
C580        O590   1.271       .  A
C580       C1336   1.477       .  S
O581       Ni597   1.918       .  S
O581        C587   1.274       .  A
O582        C587   1.271       .  A
C583       C2139   1.484       .  S
O584        C586   1.272       .  A
O585       Ni596   1.919       .  S
C586        O592   1.277       .  A
C586       C1144   1.483       .  S
C587       C1115   1.464       .  S
H588        O589   0.967       .  S
O589       Ni597   1.905       .  S
O589       Ni591   1.912       .  S
O589       Ni596   1.903       .  S
O590       Ni591   1.937       .  S
Ni591       O595   1.922       .  S
Ni591       O593   1.922       .  S
O592       Ni597   1.946       .  S
C594        O595   1.270       .  A
C594       C1243   1.478       .  S
O599       Ni605   1.925       .  S
O599        C620   1.269       .  A
O600       Ni623   1.942       .  S
O600        C609   1.274       .  A
O601       Ni605   1.907       .  S
O601       Ni623   1.924       .  S
O601       Ni617   1.919       .  S
O601        H624   0.966       .  S
C602        O619   1.280       .  A
C602        O611   1.276       .  A
C602       C1112   1.465       .  S
O603       Ni622   1.923       .  S
O603        C609   1.268       .  A
O604       Ni622   1.902       .  S
O604        C606   1.267       .  A
Ni605       O608   1.917       .  S
Ni605       O610   1.905       .  S
C606        O616   1.275       .  A
C606       C1272   1.475       .  S
O607       Ni623   1.921       .  S
O607        C613   1.277       .  A
O608        C613   1.273       .  A
C609       C2091   1.482       .  S
O610        C612   1.269       .  A
O611       Ni622   1.913       .  S
C612        O618   1.274       .  A
C612       C1096   1.473       .  S
C613       C1131   1.468       .  S
H614        O615   0.967       .  S
O615       Ni623   1.913       .  S
O615       Ni617   1.911       .  S
O615       Ni622   1.895       .  S
O616       Ni617   1.939       .  S
Ni617       O621   1.929       .  S
Ni617       O619   1.928       .  S
O618       Ni623   1.939       .  S
C620        O621   1.273       .  A
C620       C1176   1.480       .  S
O625       Ni631   1.918       .  S
O625        C646   1.269       .  A
O626       Ni649   1.926       .  S
O626        C635   1.268       .  A
O627       Ni631   1.910       .  S
O627       Ni649   1.924       .  S
O627       Ni643   1.925       .  S
O627        H650   0.966       .  S
C628        O645   1.281       .  A
C628        O637   1.275       .  A
C628       C1032   1.466       .  S
O629       Ni648   1.923       .  S
O629        C635   1.267       .  A
O630       Ni648   1.899       .  S
O630        C632   1.266       .  A
Ni631       O634   1.914       .  S
Ni631       O636   1.906       .  S
C632        O642   1.273       .  A
C632       C1067   1.474       .  S
O633       Ni649   1.913       .  S
O633        C639   1.272       .  A
O634        C639   1.270       .  A
C635       C1784   1.472       .  S
O636        C638   1.269       .  A
O637       Ni648   1.911   1_565  S
C638        O644   1.277       .  A
C638       C1147   1.479       .  S
C639       C1051   1.463       .  S
H640        O641   0.967       .  S
O641       Ni649   1.906       .  S
O641       Ni643   1.911       .  S
O641       Ni648   1.902       .  S
O642       Ni643   1.938       .  S
Ni643       O647   1.929       .  S
Ni643       O645   1.930   1_545  S
O644       Ni649   1.947       .  S
C646        O647   1.274       .  A
C646       C1083   1.476       .  S
O651       Ni657   1.920       .  S
O651        C672   1.268       .  A
O652       Ni675   1.924       .  S
O652        C661   1.268       .  A
O653       Ni657   1.908       .  S
O653       Ni675   1.923       .  S
O653       Ni669   1.924       .  S
O653        H676   0.966       .  S
C654        O671   1.282       .  A
C654        O663   1.275       .  A
C654       C1048   1.464       .  S
O655       Ni674   1.921       .  S
O655        C661   1.267       .  A
O656       Ni674   1.898       .  S
O656        C658   1.265       .  A
Ni657       O660   1.913       .  S
Ni657       O662   1.906       .  S
C658        O668   1.272       .  A
C658       C1003   1.472       .  S
O659       Ni675   1.917       .  S
O659        C665   1.273       .  A
O660        C665   1.271       .  A
C661       C1739   1.467       .  S
O662        C664   1.270       .  A
O663       Ni674   1.911       .  S
C664        O670   1.274       .  A
C664       C1099   1.476       .  S
C665       C1035   1.465       .  S
H666        O667   0.966       .  S
O667       Ni675   1.906       .  S
O667       Ni669   1.906       .  S
O667       Ni674   1.900       .  S
O668       Ni669   1.937       .  S
Ni669       O673   1.923       .  S
Ni669       O671   1.929       .  S
O670       Ni675   1.937       .  S
C672        O673   1.272       .  A
C672       C1016   1.473       .  S
O677       Ni683   1.926       .  S
O677        C698   1.270       .  A
O678       Ni701   1.938       .  S
O678        C687   1.272       .  A
O679       Ni683   1.908       .  S
O679       Ni701   1.927       .  S
O679       Ni695   1.927       .  S
O679        H702   0.966       .  S
C680        O697   1.282       .  A
C680        O689   1.277       .  A
C680        C952   1.471       .  S
O681       Ni700   1.918       .  S
O681        C687   1.268       .  A
O682       Ni700   1.901       .  S
O682        C684   1.265       .  A
Ni683       O686   1.917       .  S
Ni683       O688   1.906       .  S
C684        O694   1.271       .  A
C684        C984   1.473       .  S
O685       Ni701   1.925       .  S
O685        C691   1.276       .  A
O686        C691   1.274       .  A
C687       C1675   1.478       .  S
O688        C690   1.270       .  A
O689       Ni700   1.913       .  S
C690        O696   1.275       .  A
C690       C1224   1.473       .  S
C691        C971   1.474       .  S
H692        O693   0.967       .  S
O693       Ni701   1.911       .  S
O693       Ni695   1.903       .  S
O693       Ni700   1.897       .  S
O694       Ni695   1.936       .  S
Ni695       O699   1.920       .  S
Ni695       O697   1.934       .  S
O696       Ni701   1.938       .  S
C698        O699   1.270       .  A
C698       C1019   1.473       .  S
O703       Ni709   1.922       .  S
O703        C724   1.269       .  A
O704       Ni727   1.927       .  S
O704        C713   1.270       .  A
O705       Ni709   1.913       .  S
O705       Ni727   1.926       .  S
O705       Ni721   1.930       .  S
O705        H728   0.966       .  S
C706        O723   1.282       .  A
C706        O715   1.279       .  A
C706        C968   1.473       .  S
O707       Ni726   1.926       .  S
O707        C713   1.269       .  A
O708       Ni726   1.905       .  S
O708        C710   1.267       .  A
Ni709       O712   1.919       .  S
Ni709       O714   1.904       .  S
C710        O720   1.274       .  A
C710        C936   1.481       .  S
O711       Ni727   1.919       .  S
O711        C717   1.273       .  A
O712        C717   1.272       .  A
C713       C1643   1.474       .  S
O714        C716   1.269       .  A
O715       Ni726   1.920   1_545  S
C716        O722   1.277       .  A
C716       C1160   1.477       .  S
C717        C955   1.472       .  S
H718        O719   0.967       .  S
O719       Ni727   1.907       .  S
O719       Ni721   1.903       .  S
O719       Ni726   1.898       .  S
O720       Ni721   1.945       .  S
Ni721       O725   1.923       .  S
Ni721       O723   1.932   1_565  S
O722       Ni727   1.947       .  S
C724        O725   1.272       .  A
C724       C1080   1.473       .  S
O729       Ni735   1.923       .  S
O729        C750   1.270       .  A
O730       Ni753   1.928       .  S
O730        C739   1.269       .  A
O731       Ni735   1.912       .  S
O731       Ni753   1.929       .  S
O731       Ni747   1.930       .  S
O731        H754   0.966       .  S
C732        O749   1.283       .  A
C732        O741   1.277       .  A
C732        C888   1.472       .  S
O733       Ni752   1.924       .  S
O733        C739   1.268       .  A
O734       Ni752   1.900       .  S
O734        C736   1.267       .  A
Ni735       O738   1.915       .  S
Ni735       O740   1.908       .  S
C736        O746   1.274       .  A
C736        C939   1.485       .  S
O737       Ni753   1.912       .  S
O737        C743   1.270       .  A
O738        C743   1.270       .  A
C739       C1576   1.475       .  S
O740        C742   1.272       .  A
O741       Ni752   1.911   1_565  S
C742        O748   1.278       .  A
C742       C1435   1.482       .  S
C743        C904   1.464       .  S
H744        O745   0.967       .  S
O745       Ni753   1.902       .  S
O745       Ni747   1.905       .  S
O745       Ni752   1.896       .  S
O746       Ni747   1.949       .  S
Ni747       O751   1.920       .  S
Ni747       O749   1.937   1_545  S
O748       Ni753   1.949       .  S
C750        O751   1.272       .  A
C750        C920   1.473       .  S
O755       Ni761   1.925       .  S
O755        C776   1.270       .  A
O756       Ni779   1.939       .  S
O756        C765   1.273       .  A
O757       Ni761   1.908       .  S
O757       Ni779   1.928       .  S
O757       Ni773   1.926       .  S
O757        H780   0.966       .  S
C758        O775   1.282       .  A
C758        O767   1.276       .  A
C758        C907   1.465       .  S
O759       Ni778   1.916       .  S
O759        C765   1.267       .  A
O760       Ni778   1.900       .  S
O760        C762   1.266       .  A
Ni761       O764   1.915       .  S
Ni761       O766   1.908       .  S
C762        O772   1.271       .  A
C762        C987   1.474       .  S
O763       Ni779   1.923       .  S
O763        C769   1.275       .  A
O764        C769   1.272       .  A
C765       C1547   1.479       .  S
O766        C768   1.272       .  A
O767       Ni778   1.913       .  S
C768        O774   1.277       .  A
C768       C1355   1.481       .  S
C769        C891   1.472       .  S
H770        O771   0.966       .  S
O771       Ni779   1.911       .  S
O771       Ni773   1.902       .  S
O771       Ni778   1.895       .  S
O772       Ni773   1.936       .  S
Ni773       O777   1.921       .  S
Ni773       O775   1.929       .  S
O774       Ni779   1.946       .  S
C776        O777   1.271       .  A
C776        C875   1.474       .  S
O781       Ni787   1.919       .  S
O781        C802   1.268       .  A
O782       Ni805   1.939       .  S
O782        C791   1.273       .  A
O783       Ni787   1.905       .  S
O783       Ni805   1.922       .  S
O783       Ni799   1.922       .  S
O783        H806   0.966       .  S
C784        O801   1.280       .  A
C784        O793   1.278       .  A
C784        C840   1.472       .  S
O785       Ni804   1.924       .  S
O785        C791   1.268       .  A
O786       Ni804   1.900       .  S
O786        C788   1.267       .  A
Ni787       O790   1.911       .  S
Ni787       O792   1.907       .  S
C788        O798   1.273       .  A
C788       C1000   1.476       .  S
O789       Ni805   1.925       .  S
O789        C795   1.277       .  A
O790        C795   1.273       .  A
C791       C1499   1.479       .  S
O792        C794   1.269       .  A
O793       Ni804   1.920       .  S
C794        O800   1.273       .  A
C794       C1323   1.472       .  S
C795        C856   1.468       .  S
H796        O797   0.967       .  S
O797       Ni805   1.911       .  S
O797       Ni799   1.910       .  S
O797       Ni804   1.896       .  S
O798       Ni799   1.939       .  S
Ni799       O803   1.931       .  S
Ni799       O801   1.929       .  S
O800       Ni805   1.931       .  S
C802        O803   1.273       .  A
C802        C872   1.478       .  S
O807       Ni813   1.925       .  S
O807        C828   1.270       .  A
O808       Ni831   1.935       .  S
O808        C817   1.273       .  A
O809       Ni813   1.904       .  S
O809       Ni831   1.921       .  S
O809       Ni825   1.923       .  S
O809        H832   0.966       .  S
C810        O827   1.281       .  A
C810        O819   1.277       .  A
C810        C859   1.471       .  S
O811       Ni830   1.923       .  S
O811        C817   1.269       .  A
O812       Ni830   1.904       .  S
O812        C814   1.266       .  A
Ni813       O816   1.915       .  S
Ni813       O818   1.909       .  S
C814        O824   1.273       .  A
C814       C1064   1.474       .  S
O815       Ni831   1.927       .  S
O815        C821   1.277       .  A
O816        C821   1.274       .  A
C817       C1483   1.476       .  S
O818        C820   1.270       .  A
O819       Ni830   1.916   1_545  S
C820        O826   1.277       .  A
C820       C1259   1.479       .  S
C821        C843   1.473       .  S
H822        O823   0.966       .  S
O823       Ni831   1.912       .  S
O823       Ni825   1.905       .  S
O823       Ni830   1.895       .  S
O824       Ni825   1.938       .  S
Ni825       O829   1.923       .  S
Ni825       O827   1.932   1_565  S
O826       Ni831   1.943       .  S
C828        O829   1.272       .  A
C828        C923   1.475       .  S
C833        C838   1.381       .  A
C833        C834   1.401       .  A
C833        O839   1.320       .  A
C834        C835   1.402       .  A
C834        H845   1.082       .  S
C835        C844   1.356       .  A
C835        C836   1.381       .  A
C836        C837   1.404       .  A
C836        O842   1.322       .  A
C837        C838   1.405       .  A
C837        H846   1.082       .  S
C838        C841   1.359       .  A
O839        C840   1.330       .  A
C840        C841   1.393       .  A
C841        H847   1.083       .  S
O842        C843   1.332       .  A
C843        C844   1.392       .  A
C844        H848   1.083       .  S
C849        C854   1.381       .  A
C849        C850   1.401       .  A
C849        O855   1.320       .  A
C850        C851   1.402       .  A
C850        H861   1.082       .  S
C851        C860   1.357       .  A
C851        C852   1.381       .  A
C852        C853   1.402       .  A
C852        O858   1.321       .  A
C853        C854   1.403       .  A
C853        H862   1.082       .  S
C854        C857   1.357       .  A
O855        C856   1.330       .  A
C856        C857   1.392       .  A
C857        H863   1.083       .  S
O858        C859   1.331       .  A
C859        C860   1.392       .  A
C860        H864   1.083       .  S
C865        C870   1.379       .  A
C865        C866   1.407       .  A
C865        O871   1.318       .  A
C866        C867   1.404       .  A
C866        H877   1.082       .  S
C867        C876   1.369       .  A
C867        C868   1.380       .  A
C868        C869   1.408       .  A
C868        O874   1.319       .  A
C869        C870   1.405       .  A
C869        H878   1.082       .  S
C870        C873   1.371       .  A
O871        C872   1.333       .  A
C872        C873   1.393       .  A
C873        H879   1.082       .  S
O874        C875   1.333       .  A
C875        C876   1.391       .  A
C876        H880   1.082       .  S
C881        C886   1.381       .  A
C881        C882   1.402       .  A
C881        O887   1.322       .  A
C882        C883   1.403       .  A
C882        H893   1.082       .  S
C883        C892   1.356       .  A
C883        C884   1.381       .  A
C884        C885   1.402       .  A
C884        O890   1.322       .  A
C885        C886   1.403       .  A
C885        H894   1.082       .  S
C886        C889   1.356       .  A
O887        C888   1.330       .  A
C888        C889   1.393       .  A
C889        H895   1.083       .  S
O890        C891   1.331       .  A
C891        C892   1.393       .  A
C892        H896   1.083       .  S
C897        C902   1.381       .  A
C897        C898   1.399       .  A
C897        O903   1.312       .  A
C898        C899   1.397       .  A
C898        H909   1.082       .  S
C899        C908   1.360       .  A
C899        C900   1.380       .  A
C900        C901   1.405       .  A
C900        O906   1.316       .  A
C901        C902   1.403       .  A
C901        H910   1.082       .  S
C902        C905   1.366       .  A
O903        C904   1.328       .  A
C904        C905   1.393       .  A
C905        H911   1.083       .  S
O906        C907   1.332       .  A
C907        C908   1.388       .  A
C908        H912   1.083       .  S
C913        C918   1.380   1_545  A
C913        C914   1.408       .  A
C913        O919   1.320       .  A
C914        C915   1.406       .  A
C914        H925   1.082       .  S
C915        C924   1.370       .  A
C915        C916   1.380   1_545  A
C916        C917   1.405       .  A
C916        O922   1.317       .  A
C917        C918   1.402       .  A
C917        H926   1.082       .  S
C918        C921   1.367       .  A
O919        C920   1.333       .  A
C920        C921   1.390   1_545  A
C921        H927   1.082       .  S
O922        C923   1.332       .  A
C923        C924   1.393   1_565  A
C924        H928   1.082       .  S
C929        C934   1.380       .  A
C929        C930   1.399       .  A
C929        O935   1.316       .  A
C930        C931   1.398   1_665  A
C930        H941   1.082       .  S
C931        C940   1.354       .  A
C931        C932   1.379       .  A
C932        C933   1.415   1_545  A
C932        O938   1.330       .  A
C933        C934   1.415   1_455  A
C933        H942   1.082       .  S
C934        C937   1.375       .  A
O935        C936   1.329       .  A
C936        C937   1.399       .  A
C937        H943   1.082       .  S
O938        C939   1.338       .  A
C939        C940   1.391       .  A
C940        H944   1.083       .  S
C945        C950   1.381       .  A
C945        C946   1.402       .  A
C945        O951   1.321       .  A
C946        C947   1.403       .  A
C946        H957   1.082       .  S
C947        C956   1.358       .  A
C947        C948   1.381       .  A
C948        C949   1.402       .  A
C948        O954   1.321       .  A
C949        C950   1.402       .  A
C949        H958   1.082       .  S
C950        C953   1.357       .  A
O951        C952   1.331       .  A
C952        C953   1.392       .  A
C953        H959   1.083       .  S
O954        C955   1.330       .  A
C955        C956   1.393       .  A
C956        H960   1.083       .  S
C961        C966   1.381       .  A
C961        C962   1.401       .  A
C961        O967   1.320       .  A
C962        C963   1.402       .  A
C962        H973   1.082       .  S
C963        C972   1.357       .  A
C963        C964   1.380       .  A
C964        C965   1.405       .  A
C964        O970   1.323       .  A
C965        C966   1.406       .  A
C965        H974   1.082       .  S
C966        C969   1.362       .  A
O967        C968   1.330       .  A
C968        C969   1.394       .  A
C969        H975   1.083       .  S
O970        C971   1.332       .  A
C971        C972   1.392       .  A
C972        H976   1.083       .  S
C977        C982   1.380       .  A
C977        C978   1.398       .  A
C977        O983   1.314       .  A
C978        C979   1.397   1_655  A
C978        H989   1.082       .  S
C979        C988   1.355       .  A
C979        C980   1.380       .  A
C980        C981   1.410       .  A
C980        O986   1.325       .  A
C981        C982   1.410   1_455  A
C981        H990   1.082       .  S
C982        C985   1.370       .  A
O983        C984   1.329       .  A
C984        C985   1.396       .  A
C985        H991   1.082       .  S
O986        C987   1.334       .  A
C987        C988   1.389       .  A
C988        H992   1.083       .  S
C993        C998   1.380       .  A
C993        C994   1.409       .  A
C993        O999   1.324       .  A
C994        C995   1.408   1_455  A
C994       H1005   1.082       .  S
C995       C1004   1.369       .  A
C995        C996   1.380       .  A
C996        C997   1.399       .  A
C996       O1002   1.315       .  A
C997        C998   1.399   1_655  A
C997       H1006   1.082       .  S
C998       C1001   1.356       .  A
O999       C1000   1.334       .  A
C1000      C1001   1.391       .  A
C1001      H1007   1.083       .  S
O1002      C1003   1.329       .  A
C1003      C1004   1.395       .  A
C1004      H1008   1.082       .  S
C1009      C1014   1.380       .  A
C1009      C1010   1.407       .  A
C1009      O1015   1.318       .  A
C1010      C1011   1.405       .  A
C1010      H1021   1.082       .  S
C1011      C1020   1.369       .  A
C1011      C1012   1.380       .  A
C1012      C1013   1.406       .  A
C1012      O1018   1.318       .  A
C1013      C1014   1.403       .  A
C1013      H1022   1.082       .  S
C1014      C1017   1.368       .  A
O1015      C1016   1.333       .  A
C1016      C1017   1.391       .  A
C1017      H1023   1.082       .  S
O1018      C1019   1.331       .  A
C1019      C1020   1.392       .  A
C1020      H1024   1.082       .  S
C1025      C1030   1.380       .  A
C1025      C1026   1.404       .  A
C1025      O1031   1.314       .  A
C1026      C1027   1.401       .  A
C1026      H1037   1.082       .  S
C1027      C1036   1.364       .  A
C1027      C1028   1.380       .  A
C1028      C1029   1.402       .  A
C1028      O1034   1.313       .  A
C1029      C1030   1.399       .  A
C1029      H1038   1.082       .  S
C1030      C1033   1.363       .  A
O1031      C1032   1.331       .  A
C1032      C1033   1.390       .  A
C1033      H1039   1.083       .  S
O1034      C1035   1.330       .  A
C1035      C1036   1.391       .  A
C1036      H1040   1.083       .  S
C1041      C1046   1.380       .  A
C1041      C1042   1.404       .  A
C1041      O1047   1.314       .  A
C1042      C1043   1.401       .  A
C1042      H1053   1.082       .  S
C1043      C1052   1.365       .  A
C1043      C1044   1.380       .  A
C1044      C1045   1.401       .  A
C1044      O1050   1.312       .  A
C1045      C1046   1.397       .  A
C1045      H1054   1.082       .  S
C1046      C1049   1.362       .  A
O1047      C1048   1.331       .  A
C1048      C1049   1.389       .  A
C1049      H1055   1.082       .  S
O1050      C1051   1.329       .  A
C1051      C1052   1.391       .  A
C1052      H1056   1.082       .  S
C1057      C1062   1.380       .  A
C1057      C1058   1.401       .  A
C1057      O1063   1.316       .  A
C1058      C1059   1.400   1_465  A
C1058      H1069   1.082   1_565  S
C1059      C1068   1.358       .  A
C1059      C1060   1.380   1_545  A
C1060      C1061   1.408       .  A
C1060      O1066   1.323       .  A
C1061      C1062   1.407   1_655  A
C1061      H1070   1.082       .  S
C1062      C1065   1.368       .  A
O1063      C1064   1.331       .  A
C1064      C1065   1.394       .  A
C1065      H1071   1.082       .  S
O1066      C1067   1.333   1_565  A
C1067      C1068   1.391       .  A
C1068      H1072   1.083       .  S
C1073      C1078   1.380   1_565  A
C1073      C1074   1.407       .  A
C1073      O1079   1.318       .  A
C1074      C1075   1.404       .  A
C1074      H1085   1.082       .  S
C1075      C1084   1.370       .  A
C1075      C1076   1.379   1_565  A
C1076      C1077   1.408       .  A
C1076      O1082   1.318       .  A
C1077      C1078   1.404       .  A
C1077      H1086   1.082       .  S
C1078      C1081   1.370       .  A
O1079      C1080   1.332       .  A
C1080      C1081   1.392   1_565  A
C1081      H1087   1.082       .  S
O1082      C1083   1.333       .  A
C1083      C1084   1.392   1_545  A
C1084      H1088   1.082       .  S
C1089      C1094   1.380       .  A
C1089      C1090   1.398       .  A
C1089      O1095   1.314       .  A
C1090      C1091   1.397       .  A
C1090      H1101   1.082       .  S
C1091      C1100   1.356       .  A
C1091      C1092   1.379       .  A
C1092      C1093   1.410       .  A
C1092      O1098   1.325       .  A
C1093      C1094   1.410       .  A
C1093      H1102   1.082       .  S
C1094      C1097   1.370       .  A
O1095      C1096   1.329       .  A
C1096      C1097   1.396       .  A
C1097      H1103   1.082       .  S
O1098      C1099   1.335       .  A
C1099      C1100   1.390       .  A
C1100      H1104   1.083       .  S
C1105      C1110   1.380       .  A
C1105      C1106   1.402       .  A
C1105      O1111   1.314       .  A
C1106      C1107   1.399       .  A
C1106      H1117   1.082       .  S
C1107      C1116   1.364       .  A
C1107      C1108   1.380       .  A
C1108      C1109   1.403       .  A
C1108      O1114   1.314       .  A
C1109      C1110   1.400       .  A
C1109      H1118   1.082       .  S
C1110      C1113   1.364       .  A
O1111      C1112   1.330       .  A
C1112      C1113   1.391       .  A
C1113      H1119   1.083       .  S
O1114      C1115   1.330   1_565  A
C1115      C1116   1.390   1_545  A
C1116      H1120   1.082   1_565  S
C1121      C1126   1.380       .  A
C1121      C1122   1.402       .  A
C1121      O1127   1.315       .  A
C1122      C1123   1.399       .  A
C1122      H1133   1.082       .  S
C1123      C1132   1.362       .  A
C1123      C1124   1.380       .  A
C1124      C1125   1.405       .  A
C1124      O1130   1.316       .  A
C1125      C1126   1.402       .  A
C1125      H1134   1.082       .  S
C1126      C1129   1.364       .  A
O1127      C1128   1.330       .  A
C1128      C1129   1.392       .  A
C1129      H1135   1.083       .  S
O1130      C1131   1.332       .  A
C1131      C1132   1.389       .  A
C1132      H1136   1.082       .  S
C1137      C1142   1.379       .  A
C1137      C1138   1.411       .  A
C1137      O1143   1.326       .  A
C1138      C1139   1.410       .  A
C1138      H1149   1.082       .  S
C1139      C1148   1.370       .  A
C1139      C1140   1.380       .  A
C1140      C1141   1.402       .  A
C1140      O1146   1.318       .  A
C1141      C1142   1.402       .  A
C1141      H1150   1.082       .  S
C1142      C1145   1.360       .  A
O1143      C1144   1.335       .  A
C1144      C1145   1.393       .  A
C1145      H1151   1.083       .  S
O1146      C1147   1.331       .  A
C1147      C1148   1.396       .  A
C1148      H1152   1.082       .  S
C1153      C1158   1.380       .  A
C1153      C1154   1.400       .  A
C1153      O1159   1.315       .  A
C1154      C1155   1.399       .  A
C1154      H1165   1.082       .  S
C1155      C1164   1.358       .  A
C1155      C1156   1.379       .  A
C1156      C1157   1.411       .  A
C1156      O1162   1.325       .  A
C1157      C1158   1.410       .  A
C1157      H1166   1.082       .  S
C1158      C1161   1.372       .  A
O1159      C1160   1.330       .  A
C1160      C1161   1.396       .  A
C1161      H1167   1.082       .  S
O1162      C1163   1.335       .  A
C1163      C1164   1.391       .  A
C1164      H1168   1.083       .  S
C1169      C1174   1.379       .  A
C1169      C1170   1.409       .  A
C1169      O1175   1.320       .  A
C1170      C1171   1.407       .  A
C1170      H1181   1.082       .  S
C1171      C1180   1.372       .  A
C1171      C1172   1.379       .  A
C1172      C1173   1.407       .  A
C1172      O1178   1.318       .  A
C1173      C1174   1.404       .  A
C1173      H1182   1.082       .  S
C1174      C1177   1.370       .  A
O1175      C1176   1.334       .  A
C1176      C1177   1.392       .  A
C1177      H1183   1.082       .  S
O1178      C1179   1.332       .  A
C1179      C1180   1.394       .  A
C1180      H1184   1.082       .  S
C1185      C1190   1.381       .  A
C1185      C1186   1.402       .  A
C1185      O1191   1.322       .  A
C1186      C1187   1.403       .  A
C1186      H1197   1.082       .  S
C1187      C1196   1.357       .  A
C1187      C1188   1.381       .  A
C1188      C1189   1.402       .  A
C1188      O1194   1.322       .  A
C1189      C1190   1.404       .  A
C1189      H1198   1.082       .  S
C1190      C1193   1.358       .  A
O1191      C1192   1.330       .  A
C1192      C1193   1.393       .  A
C1193      H1199   1.083       .  S
O1194      C1195   1.331       .  A
C1195      C1196   1.393       .  A
C1196      H1200   1.083       .  S
C1201      C1206   1.380       .  A
C1201      C1202   1.405       .  A
C1201      O1207   1.318   1_545  A
C1202      C1203   1.403       .  A
C1202      H1213   1.082       .  S
C1203      C1212   1.365       .  A
C1203      C1204   1.380       .  A
C1204      C1205   1.405       .  A
C1204      O1210   1.318       .  A
C1205      C1206   1.403       .  A
C1205      H1214   1.082       .  S
C1206      C1209   1.365   1_545  A
O1207      C1208   1.332       .  A
C1208      C1209   1.391       .  A
C1209      H1215   1.082       .  S
O1210      C1211   1.332       .  A
C1211      C1212   1.392       .  A
C1212      H1216   1.083       .  S
C1217      C1222   1.380       .  A
C1217      C1218   1.400       .  A
C1217      O1223   1.315       .  A
C1218      C1219   1.399       .  A
C1218      H1229   1.082       .  S
C1219      C1228   1.357       .  A
C1219      C1220   1.380       .  A
C1220      C1221   1.409       .  A
C1220      O1226   1.323       .  A
C1221      C1222   1.408       .  A
C1221      H1230   1.082       .  S
C1222      C1225   1.369       .  A
O1223      C1224   1.329       .  A
C1224      C1225   1.395       .  A
C1225      H1231   1.082       .  S
O1226      C1227   1.334       .  A
C1227      C1228   1.390       .  A
C1228      H1232   1.083       .  S
C1233      C1238   1.380       .  A
C1233      C1234   1.407       .  A
C1233      O1239   1.319       .  A
C1234      C1235   1.404       .  A
C1234      H1245   1.082       .  S
C1235      C1244   1.368       .  A
C1235      C1236   1.379       .  A
C1236      C1237   1.408       .  A
C1236      O1242   1.320       .  A
C1237      C1238   1.406       .  A
C1237      H1246   1.082       .  S
C1238      C1241   1.370       .  A
O1239      C1240   1.333       .  A
C1240      C1241   1.393       .  A
C1241      H1247   1.082       .  S
O1242      C1243   1.334       .  A
C1243      C1244   1.392       .  A
C1244      H1248   1.082       .  S
C1249      C1254   1.379       .  A
C1249      C1250   1.411       .  A
C1249      O1255   1.326       .  A
C1250      C1251   1.410       .  A
C1250      H1261   1.082       .  S
C1251      C1260   1.371       .  A
C1251      C1252   1.380       .  A
C1252      C1253   1.403       .  A
C1252      O1258   1.318       .  A
C1253      C1254   1.402       .  A
C1253      H1262   1.082       .  S
C1254      C1257   1.361       .  A
O1255      C1256   1.336       .  A
C1256      C1257   1.393       .  A
C1257      H1263   1.083       .  S
O1258      C1259   1.331       .  A
C1259      C1260   1.396       .  A
C1260      H1264   1.082       .  S
C1265      C1270   1.380       .  A
C1265      C1266   1.401       .  A
C1265      O1271   1.316       .  A
C1266      C1267   1.400       .  A
C1266      H1277   1.082       .  S
C1267      C1276   1.358       .  A
C1267      C1268   1.380       .  A
C1268      C1269   1.410       .  A
C1268      O1274   1.325       .  A
C1269      C1270   1.409       .  A
C1269      H1278   1.082       .  S
C1270      C1273   1.370       .  A
O1271      C1272   1.331       .  A
C1272      C1273   1.394       .  A
C1273      H1279   1.082       .  S
O1274      C1275   1.334       .  A
C1275      C1276   1.392       .  A
C1276      H1280   1.083       .  S
C1281      C1286   1.381       .  A
C1281      C1282   1.402       .  A
C1281      O1287   1.321       .  A
C1282      C1283   1.403       .  A
C1282      H1293   1.082       .  S
C1283      C1292   1.356       .  A
C1283      C1284   1.381       .  A
C1284      C1285   1.400       .  A
C1284      O1290   1.320       .  A
C1285      C1286   1.401       .  A
C1285      H1294   1.082       .  S
C1286      C1289   1.354       .  A
O1287      C1288   1.331       .  A
C1288      C1289   1.391       .  A
C1289      H1295   1.083       .  S
O1290      C1291   1.329       .  A
C1291      C1292   1.393       .  A
C1292      H1296   1.083       .  S
C1297      C1302   1.380       .  A
C1297      C1298   1.404       .  A
C1297      O1303   1.316       .  A
C1298      C1299   1.402       .  A
C1298      H1309   1.082       .  S
C1299      C1308   1.364   1_545  A
C1299      C1300   1.380       .  A
C1300      C1301   1.404       .  A
C1300      O1306   1.316   1_545  A
C1301      C1302   1.401       .  A
C1301      H1310   1.082       .  S
C1302      C1305   1.364       .  A
O1303      C1304   1.331       .  A
C1304      C1305   1.391       .  A
C1305      H1311   1.082       .  S
O1306      C1307   1.331       .  A
C1307      C1308   1.391       .  A
C1308      H1312   1.082       .  S
C1313      C1318   1.380       .  A
C1313      C1314   1.409       .  A
C1313      O1319   1.326       .  A
C1314      C1315   1.409       .  A
C1314      H1325   1.082       .  S
C1315      C1324   1.367       .  A
C1315      C1316   1.380       .  A
C1316      C1317   1.399       .  A
C1316      O1322   1.316       .  A
C1317      C1318   1.399       .  A
C1317      H1326   1.082       .  S
C1318      C1321   1.355       .  A
O1319      C1320   1.335       .  A
C1320      C1321   1.391       .  A
C1321      H1327   1.083       .  S
O1322      C1323   1.329       .  A
C1323      C1324   1.395       .  A
C1324      H1328   1.082       .  S
C1329      C1334   1.380       .  A
C1329      C1330   1.397       .  A
C1329      O1335   1.315       .  A
C1330      C1331   1.397       .  A
C1330      H1341   1.082       .  S
C1331      C1340   1.353       .  A
C1331      C1332   1.379       .  A
C1332      C1333   1.413       .  A
C1332      O1338   1.328       .  A
C1333      C1334   1.413       .  A
C1333      H1342   1.082       .  S
C1334      C1337   1.373       .  A
O1335      C1336   1.328       .  A
C1336      C1337   1.398       .  A
C1337      H1343   1.082       .  S
O1338      C1339   1.336       .  A
C1339      C1340   1.389       .  A
C1340      H1344   1.083       .  S
C1345      C1350   1.380       .  A
C1345      C1346   1.401       .  A
C1345      O1351   1.318       .  A
C1346      C1347   1.401       .  A
C1346      H1357   1.082       .  S
C1347      C1356   1.359       .  A
C1347      C1348   1.379       .  A
C1348      C1349   1.411       .  A
C1348      O1354   1.326       .  A
C1349      C1350   1.410       .  A
C1349      H1358   1.082       .  S
C1350      C1353   1.371       .  A
O1351      C1352   1.331       .  A
C1352      C1353   1.397       .  A
C1353      H1359   1.082       .  S
O1354      C1355   1.335       .  A
C1355      C1356   1.392       .  A
C1356      H1360   1.083       .  S
C1361      C1366   1.380       .  A
C1361      C1362   1.398       .  A
C1361      O1367   1.314       .  A
C1362      C1363   1.397       .  A
C1362      H1373   1.082       .  S
C1363      C1372   1.355       .  A
C1363      C1364   1.380       .  A
C1364      C1365   1.411       .  A
C1364      O1370   1.326       .  A
C1365      C1366   1.411       .  A
C1365      H1374   1.082       .  S
C1366      C1369   1.372       .  A
O1367      C1368   1.329       .  A
C1368      C1369   1.397       .  A
C1369      H1375   1.082       .  S
O1370      C1371   1.335       .  A
C1371      C1372   1.390       .  A
C1372      H1376   1.083       .  S
C1377      C1382   1.380       .  A
C1377      C1378   1.408       .  A
C1377      O1383   1.320       .  A
C1378      C1379   1.406       .  A
C1378      H1389   1.082       .  S
C1379      C1388   1.369       .  A
C1379      C1380   1.379       .  A
C1380      C1381   1.407       .  A
C1380      O1386   1.320       .  A
C1381      C1382   1.405       .  A
C1381      H1390   1.082       .  S
C1382      C1385   1.369       .  A
O1383      C1384   1.333       .  A
C1384      C1385   1.392       .  A
C1385      H1391   1.082       .  S
O1386      C1387   1.333       .  A
C1387      C1388   1.393       .  A
C1388      H1392   1.082       .  S
C1393      C1398   1.380       .  A
C1393      C1394   1.404       .  A
C1393      O1399   1.315       .  A
C1394      C1395   1.401       .  A
C1394      H1405   1.082       .  S
C1395      C1404   1.365       .  A
C1395      C1396   1.380       .  A
C1396      C1397   1.402       .  A
C1396      O1402   1.314       .  A
C1397      C1398   1.400       .  A
C1397      H1406   1.082       .  S
C1398      C1401   1.363       .  A
O1399      C1400   1.331       .  A
C1400      C1401   1.390       .  A
C1401      H1407   1.083       .  S
O1402      C1403   1.330   1_565  A
C1403      C1404   1.391   1_545  A
C1404      H1408   1.082   1_565  S
C1409      C1414   1.380       .  A
C1409      C1410   1.404       .  A
C1409      O1415   1.316       .  A
C1410      C1411   1.402       .  A
C1410      H1421   1.082       .  S
C1411      C1420   1.364       .  A
C1411      C1412   1.380       .  A
C1412      C1413   1.402       .  A
C1412      O1418   1.315       .  A
C1413      C1414   1.399       .  A
C1413      H1422   1.082       .  S
C1414      C1417   1.361       .  A
O1415      C1416   1.331       .  A
C1416      C1417   1.390       .  A
C1417      H1423   1.083       .  S
O1418      C1419   1.330       .  A
C1419      C1420   1.391       .  A
C1420      H1424   1.082       .  S
C1425      C1430   1.380       .  A
C1425      C1426   1.401       .  A
C1425      O1431   1.318       .  A
C1426      C1427   1.401       .  A
C1426      H1437   1.082       .  S
C1427      C1436   1.358       .  A
C1427      C1428   1.379       .  A
C1428      C1429   1.411       .  A
C1428      O1434   1.327       .  A
C1429      C1430   1.410       .  A
C1429      H1438   1.082       .  S
C1430      C1433   1.370       .  A
O1431      C1432   1.330       .  A
C1432      C1433   1.396       .  A
C1433      H1439   1.082       .  S
O1434      C1435   1.335       .  A
C1435      C1436   1.392       .  A
C1436      H1440   1.083       .  S
C1441      C1446   1.380       .  A
C1441      C1442   1.410       .  A
C1441      O1447   1.325       .  A
C1442      C1443   1.410       .  A
C1442      H1453   1.082       .  S
C1443      C1452   1.370       .  A
C1443      C1444   1.380       .  A
C1444      C1445   1.400       .  A
C1444      O1450   1.316       .  A
C1445      C1446   1.399       .  A
C1445      H1454   1.082       .  S
C1446      C1449   1.357       .  A
O1447      C1448   1.335       .  A
C1448      C1449   1.391       .  A
C1449      H1455   1.083       .  S
O1450      C1451   1.330       .  A
C1451      C1452   1.396       .  A
C1452      H1456   1.082       .  S
C1457      C1462   1.380       .  A
C1457      C1458   1.406       .  A
C1457      O1463   1.318       .  A
C1458      C1459   1.403       .  A
C1458      H1469   1.082       .  S
C1459      C1468   1.368       .  A
C1459      C1460   1.380       .  A
C1460      C1461   1.407       .  A
C1460      O1466   1.318       .  A
C1461      C1462   1.404       .  A
C1461      H1470   1.082       .  S
C1462      C1465   1.369       .  A
O1463      C1464   1.332       .  A
C1464      C1465   1.392       .  A
C1465      H1471   1.082       .  S
O1466      C1467   1.333       .  A
C1467      C1468   1.391       .  A
C1468      H1472   1.082       .  S
C1473      C1478   1.379       .  A
C1473      C1474   1.415       .  A
C1473      O1479   1.331       .  A
C1474      C1475   1.415       .  A
C1474      H1485   1.082       .  S
C1475      C1484   1.376       .  A
C1475      C1476   1.380       .  A
C1476      C1477   1.398       .  A
C1476      O1482   1.315       .  A
C1477      C1478   1.398       .  A
C1477      H1486   1.083       .  S
C1478      C1481   1.354       .  A
O1479      C1480   1.337       .  A
C1480      C1481   1.390       .  A
C1481      H1487   1.083       .  S
O1482      C1483   1.329       .  A
C1483      C1484   1.397       .  A
C1484      H1488   1.082       .  S
C1489      C1494   1.379       .  A
C1489      C1490   1.415       .  A
C1489      O1495   1.330       .  A
C1490      C1491   1.415       .  A
C1490      H1501   1.082       .  S
C1491      C1500   1.377       .  A
C1491      C1492   1.380       .  A
C1492      C1493   1.399       .  A
C1492      O1498   1.315       .  A
C1493      C1494   1.398       .  A
C1493      H1502   1.083       .  S
C1494      C1497   1.357       .  A
O1495      C1496   1.337       .  A
C1496      C1497   1.390       .  A
C1497      H1503   1.083       .  S
O1498      C1499   1.329       .  A
C1499      C1500   1.398       .  A
C1500      H1504   1.082       .  S
C1505      C1510   1.380       .  A
C1505      C1506   1.401       .  A
C1505      O1511   1.313       .  A
C1506      C1507   1.399       .  A
C1506      H1517   1.082       .  S
C1507      C1516   1.362       .  A
C1507      C1508   1.380       .  A
C1508      C1509   1.403       .  A
C1508      O1514   1.315       .  A
C1509      C1510   1.401       .  A
C1509      H1518   1.082       .  S
C1510      C1513   1.364       .  A
O1511      C1512   1.330       .  A
C1512      C1513   1.391       .  A
C1513      H1519   1.082       .  S
O1514      C1515   1.331       .  A
C1515      C1516   1.390       .  A
C1516      H1520   1.083       .  S
C1521      C1526   1.380       .  A
C1521      C1522   1.403       .  A
C1521      O1527   1.315       .  A
C1522      C1523   1.401       .  A
C1522      H1533   1.082       .  S
C1523      C1532   1.363       .  A
C1523      C1524   1.380       .  A
C1524      C1525   1.403       .  A
C1524      O1530   1.316       .  A
C1525      C1526   1.401       .  A
C1525      H1534   1.082       .  S
C1526      C1529   1.363       .  A
O1527      C1528   1.331       .  A
C1528      C1529   1.390       .  A
C1529      H1535   1.082       .  S
O1530      C1531   1.331       .  A
C1531      C1532   1.390       .  A
C1532      H1536   1.082       .  S
C1537      C1542   1.380       .  A
C1537      C1538   1.397   1_556  A
C1537      O1543   1.313       .  A
C1538      C1539   1.396       .  A
C1538      H1549   1.083       .  S
C1539      C1548   1.353       .  A
C1539      C1540   1.379       .  A
C1540      C1541   1.415       .  A
C1540      O1546   1.330       .  A
C1541      C1542   1.414   1_554  A
C1541      H1550   1.082       .  S
C1542      C1545   1.377       .  A
O1543      C1544   1.328       .  A
C1544      C1545   1.397       .  A
C1545      H1551   1.082       .  S
O1546      C1547   1.337       .  A
C1547      C1548   1.389       .  A
C1548      H1552   1.083       .  S
C1553      C1558   1.379       .  A
C1553      C1554   1.409       .  A
C1553      O1559   1.320       .  A
C1554      C1555   1.406       .  A
C1554      H1565   1.082       .  S
C1555      C1564   1.371       .  A
C1555      C1556   1.379       .  A
C1556      C1557   1.409       .  A
C1556      O1562   1.320       .  A
C1557      C1558   1.406       .  A
C1557      H1566   1.082       .  S
C1558      C1561   1.371       .  A
O1559      C1560   1.333       .  A
C1560      C1561   1.393       .  A
C1561      H1567   1.082       .  S
O1562      C1563   1.333       .  A
C1563      C1564   1.393       .  A
C1564      H1568   1.082       .  S
C1569      C1574   1.380       .  A
C1569      C1570   1.412       .  A
C1569      O1575   1.327       .  A
C1570      C1571   1.411   1_554  A
C1570      H1581   1.082       .  S
C1571      C1580   1.374       .  A
C1571      C1572   1.380       .  A
C1572      C1573   1.399   1_556  A
C1572      O1578   1.314       .  A
C1573      C1574   1.398       .  A
C1573      H1582   1.083   1_554  S
C1574      C1577   1.356       .  A
O1575      C1576   1.335       .  A
C1576      C1577   1.389       .  A
C1577      H1583   1.083       .  S
O1578      C1579   1.328       .  A
C1579      C1580   1.396       .  A
C1580      H1584   1.082       .  S
C1585      C1590   1.380       .  A
C1585      C1586   1.404       .  A
C1585      O1591   1.317       .  A
C1586      C1587   1.402       .  A
C1586      H1597   1.082       .  S
C1587      C1596   1.364       .  A
C1587      C1588   1.380       .  A
C1588      C1589   1.402       .  A
C1588      O1594   1.316       .  A
C1589      C1590   1.400       .  A
C1589      H1598   1.082       .  S
C1590      C1593   1.361       .  A
O1591      C1592   1.331       .  A
C1592      C1593   1.390       .  A
C1593      H1599   1.083       .  S
O1594      C1595   1.331       .  A
C1595      C1596   1.392       .  A
C1596      H1600   1.082       .  S
C1601      C1606   1.381       .  A
C1601      C1602   1.402       .  A
C1601      O1607   1.321       .  A
C1602      C1603   1.404       .  A
C1602      H1613   1.082       .  S
C1603      C1612   1.358       .  A
C1603      C1604   1.381       .  A
C1604      C1605   1.400       .  A
C1604      O1610   1.320       .  A
C1605      C1606   1.401       .  A
C1605      H1614   1.082       .  S
C1606      C1609   1.355       .  A
O1607      C1608   1.331       .  A
C1608      C1609   1.391       .  A
C1609      H1615   1.083       .  S
O1610      C1611   1.329       .  A
C1611      C1612   1.394       .  A
C1612      H1616   1.083       .  S
C1617      C1622   1.379   1_545  A
C1617      C1618   1.407       .  A
C1617      O1623   1.318       .  A
C1618      C1619   1.404       .  A
C1618      H1629   1.082       .  S
C1619      C1628   1.369       .  A
C1619      C1620   1.379   1_545  A
C1620      C1621   1.408       .  A
C1620      O1626   1.319       .  A
C1621      C1622   1.405       .  A
C1621      H1630   1.082       .  S
C1622      C1625   1.371       .  A
O1623      C1624   1.332       .  A
C1624      C1625   1.393   1_545  A
C1625      H1631   1.082       .  S
O1626      C1627   1.333       .  A
C1627      C1628   1.392   1_565  A
C1628      H1632   1.082       .  S
C1633      C1638   1.380       .  A
C1633      C1634   1.400   1_556  A
C1633      O1639   1.316       .  A
C1634      C1635   1.399       .  A
C1634      H1645   1.082       .  S
C1635      C1644   1.357       .  A
C1635      C1636   1.380       .  A
C1636      C1637   1.411       .  A
C1636      O1642   1.326       .  A
C1637      C1638   1.411   1_554  A
C1637      H1646   1.082       .  S
C1638      C1641   1.372       .  A
O1639      C1640   1.329       .  A
C1640      C1641   1.395       .  A
C1641      H1647   1.082       .  S
O1642      C1643   1.335       .  A
C1643      C1644   1.389       .  A
C1644      H1648   1.083       .  S
C1649      C1654   1.380       .  A
C1649      C1650   1.409   1_545  A
C1649      O1655   1.325       .  A
C1650      C1651   1.408   1_455  A
C1650      H1661   1.082       .  S
C1651      C1660   1.369       .  A
C1651      C1652   1.380       .  A
C1652      C1653   1.401       .  A
C1652      O1658   1.316       .  A
C1653      C1654   1.400   1_665  A
C1653      H1662   1.082       .  S
C1654      C1657   1.358       .  A
O1655      C1656   1.334       .  A
C1656      C1657   1.392       .  A
C1657      H1663   1.083       .  S
O1658      C1659   1.330       .  A
C1659      C1660   1.394       .  A
C1660      H1664   1.082       .  S
C1665      C1670   1.380       .  A
C1665      C1666   1.398       .  A
C1665      O1671   1.314       .  A
C1666      C1667   1.397   1_556  A
C1666      H1677   1.083       .  S
C1667      C1676   1.354       .  A
C1667      C1668   1.379       .  A
C1668      C1669   1.414       .  A
C1668      O1674   1.329       .  A
C1669      C1670   1.414   1_554  A
C1669      H1678   1.082       .  S
C1670      C1673   1.375       .  A
O1671      C1672   1.328       .  A
C1672      C1673   1.397       .  A
C1673      H1679   1.082       .  S
O1674      C1675   1.337       .  A
C1675      C1676   1.389       .  A
C1676      H1680   1.083       .  S
C1681      C1686   1.380       .  A
C1681      C1682   1.402       .  A
C1681      O1687   1.315       .  A
C1682      C1683   1.400       .  A
C1682      H1693   1.082       .  S
C1683      C1692   1.362       .  A
C1683      C1684   1.380       .  A
C1684      C1685   1.404       .  A
C1684      O1690   1.316       .  A
C1685      C1686   1.402       .  A
C1685      H1694   1.082       .  S
C1686      C1689   1.364       .  A
O1687      C1688   1.330       .  A
C1688      C1689   1.392       .  A
C1689      H1695   1.083       .  S
O1690      C1691   1.331       .  A
C1691      C1692   1.390       .  A
C1692      H1696   1.082       .  S
C1697      C1702   1.381       .  A
C1697      C1698   1.404       .  A
C1697      O1703   1.323       .  A
C1698      C1699   1.405       .  A
C1698      H1709   1.082       .  S
C1699      C1708   1.359       .  A
C1699      C1700   1.381       .  A
C1700      C1701   1.401       .  A
C1700      O1706   1.321       .  A
C1701      C1702   1.402       .  A
C1701      H1710   1.082       .  S
C1702      C1705   1.356       .  A
O1703      C1704   1.331       .  A
C1704      C1705   1.392       .  A
C1705      H1711   1.083       .  S
O1706      C1707   1.330       .  A
C1707      C1708   1.394       .  A
C1708      H1712   1.083       .  S
C1713      C1718   1.380       .  A
C1713      C1714   1.401       .  A
C1713      O1719   1.318       .  A
C1714      C1715   1.401   1_655  A
C1714      H1725   1.082       .  S
C1715      C1724   1.358       .  A
C1715      C1716   1.379       .  A
C1716      C1717   1.411       .  A
C1716      O1722   1.327       .  A
C1717      C1718   1.411   1_455  A
C1717      H1726   1.082       .  S
C1718      C1721   1.372       .  A
O1719      C1720   1.331       .  A
C1720      C1721   1.397       .  A
C1721      H1727   1.082       .  S
O1722      C1723   1.335       .  A
C1723      C1724   1.392       .  A
C1724      H1728   1.083       .  S
C1729      C1734   1.380       .  A
C1729      C1730   1.411       .  A
C1729      O1735   1.326       .  A
C1730      C1731   1.410       .  A
C1730      H1741   1.082       .  S
C1731      C1740   1.371       .  A
C1731      C1732   1.381       .  A
C1732      C1733   1.396       .  A
C1732      O1738   1.313       .  A
C1733      C1734   1.396       .  A
C1733      H1742   1.083       .  S
C1734      C1737   1.353       .  A
O1735      C1736   1.334       .  A
C1736      C1737   1.388       .  A
C1737      H1743   1.083       .  S
O1738      C1739   1.327       .  A
C1739      C1740   1.394       .  A
C1740      H1744   1.082       .  S
C1745      C1750   1.380       .  A
C1745      C1746   1.401       .  A
C1745      O1751   1.317       .  A
C1746      C1747   1.401   1_655  A
C1746      H1757   1.082       .  S
C1747      C1756   1.358       .  A
C1747      C1748   1.379       .  A
C1748      C1749   1.412   1_455  A
C1748      O1754   1.328       .  A
C1749      C1750   1.412       .  A
C1749      H1758   1.082       .  S
C1750      C1753   1.372       .  A
O1751      C1752   1.330       .  A
C1752      C1753   1.396       .  A
C1753      H1759   1.082       .  S
O1754      C1755   1.336       .  A
C1755      C1756   1.393       .  A
C1756      H1760   1.083       .  S
C1761      C1766   1.380       .  A
C1761      C1762   1.407       .  A
C1761      O1767   1.318       .  A
C1762      C1763   1.405       .  A
C1762      H1773   1.082       .  S
C1763      C1772   1.368       .  A
C1763      C1764   1.380       .  A
C1764      C1765   1.403       .  A
C1764      O1770   1.316       .  A
C1765      C1766   1.401       .  A
C1765      H1774   1.082       .  S
C1766      C1769   1.365       .  A
O1767      C1768   1.333       .  A
C1768      C1769   1.390       .  A
C1769      H1775   1.082       .  S
O1770      C1771   1.330       .  A
C1771      C1772   1.392       .  A
C1772      H1776   1.083       .  S
C1777      C1782   1.380       .  A
C1777      C1778   1.411       .  A
C1777      O1783   1.326       .  A
C1778      C1779   1.410       .  A
C1778      H1789   1.082       .  S
C1779      C1788   1.372       .  A
C1779      C1780   1.381       .  A
C1780      C1781   1.398       .  A
C1780      O1786   1.314       .  A
C1781      C1782   1.397       .  A
C1781      H1790   1.083       .  S
C1782      C1785   1.355       .  A
O1783      C1784   1.334       .  A
C1784      C1785   1.388       .  A
C1785      H1791   1.083       .  S
O1786      C1787   1.328       .  A
C1787      C1788   1.395       .  A
C1788      H1792   1.082       .  S
C1793      C1798   1.380       .  A
C1793      C1794   1.402       .  A
C1793      O1799   1.315       .  A
C1794      C1795   1.400       .  A
C1794      H1805   1.082       .  S
C1795      C1804   1.363       .  A
C1795      C1796   1.380       .  A
C1796      C1797   1.404       .  A
C1796      O1802   1.316       .  A
C1797      C1798   1.402       .  A
C1797      H1806   1.082       .  S
C1798      C1801   1.365       .  A
O1799      C1800   1.330       .  A
C1800      C1801   1.392       .  A
C1801      H1807   1.082       .  S
O1802      C1803   1.332       .  A
C1803      C1804   1.390       .  A
C1804      H1808   1.082       .  S
C1809      C1814   1.381       .  A
C1809      C1810   1.400       .  A
C1809      O1815   1.312       .  A
C1810      C1811   1.398       .  A
C1810      H1821   1.082       .  S
C1811      C1820   1.361       .  A
C1811      C1812   1.380       .  A
C1812      C1813   1.404       .  A
C1812      O1818   1.315       .  A
C1813      C1814   1.401       .  A
C1813      H1822   1.082       .  S
C1814      C1817   1.364       .  A
O1815      C1816   1.329       .  A
C1816      C1817   1.391       .  A
C1817      H1823   1.083       .  S
O1818      C1819   1.331       .  A
C1819      C1820   1.389       .  A
C1820      H1824   1.083       .  S
C1825      C1830   1.380       .  A
C1825      C1826   1.410       .  A
C1825      O1831   1.325   1_565  A
C1826      C1827   1.409   1_655  A
C1826      H1837   1.082       .  S
C1827      C1836   1.369       .  A
C1827      C1828   1.381       .  A
C1828      C1829   1.396   1_455  A
C1828      O1834   1.313       .  A
C1829      C1830   1.396       .  A
C1829      H1838   1.083   1_655  S
C1830      C1833   1.352       .  A
O1831      C1832   1.335       .  A
C1832      C1833   1.390   1_545  A
C1833      H1839   1.083       .  S
O1834      C1835   1.328       .  A
C1835      C1836   1.395       .  A
C1836      H1840   1.082       .  S
C1841      C1846   1.379   1_545  A
C1841      C1842   1.408       .  A
C1841      O1847   1.319       .  A
C1842      C1843   1.405       .  A
C1842      H1853   1.082       .  S
C1843      C1852   1.371       .  A
C1843      C1844   1.379   1_545  A
C1844      C1845   1.407       .  A
C1844      O1850   1.318       .  A
C1845      C1846   1.404       .  A
C1845      H1854   1.082       .  S
C1846      C1849   1.369       .  A
O1847      C1848   1.333       .  A
C1848      C1849   1.391   1_545  A
C1849      H1855   1.082       .  S
O1850      C1851   1.333       .  A
C1851      C1852   1.392   1_565  A
C1852      H1856   1.082       .  S
C1857      C1862   1.380       .  A
C1857      C1858   1.412       .  A
C1857      O1863   1.328       .  A
C1858      C1859   1.412       .  A
C1858      H1869   1.082       .  S
C1859      C1868   1.372       .  A
C1859      C1860   1.380       .  A
C1860      C1861   1.401       .  A
C1860      O1866   1.318       .  A
C1861      C1862   1.401       .  A
C1861      H1870   1.082       .  S
C1862      C1865   1.358       .  A
O1863      C1864   1.336       .  A
C1864      C1865   1.390       .  A
C1865      H1871   1.083       .  S
O1866      C1867   1.330       .  A
C1867      C1868   1.395       .  A
C1868      H1872   1.082       .  S
C1873      C1878   1.380       .  A
C1873      C1874   1.402       .  A
C1873      O1879   1.317       .  A
C1874      C1875   1.401       .  A
C1874      H1885   1.082       .  S
C1875      C1884   1.359       .  A
C1875      C1876   1.380       .  A
C1876      C1877   1.409       .  A
C1876      O1882   1.324       .  A
C1877      C1878   1.409       .  A
C1877      H1886   1.082       .  S
C1878      C1881   1.369       .  A
O1879      C1880   1.331       .  A
C1880      C1881   1.395       .  A
C1881      H1887   1.082       .  S
O1882      C1883   1.334       .  A
C1883      C1884   1.392       .  A
C1884      H1888   1.083       .  S
C1889      C1894   1.379       .  A
C1889      C1890   1.414       .  A
C1889      O1895   1.331       .  A
C1890      C1891   1.414       .  A
C1890      H1901   1.082       .  S
C1891      C1900   1.375       .  A
C1891      C1892   1.380       .  A
C1892      C1893   1.401       .  A
C1892      O1898   1.318       .  A
C1893      C1894   1.401       .  A
C1893      H1902   1.083       .  S
C1894      C1897   1.357       .  A
O1895      C1896   1.337       .  A
C1896      C1897   1.392       .  A
C1897      H1903   1.083       .  S
O1898      C1899   1.331       .  A
C1899      C1900   1.397       .  A
C1900      H1904   1.082       .  S
C1905      C1910   1.380       .  A
C1905      C1906   1.403       .  A
C1905      O1911   1.315       .  A
C1906      C1907   1.400       .  A
C1906      H1917   1.082       .  S
C1907      C1916   1.363       .  A
C1907      C1908   1.380       .  A
C1908      C1909   1.405       .  A
C1908      O1914   1.317       .  A
C1909      C1910   1.402       .  A
C1909      H1918   1.082       .  S
C1910      C1913   1.365       .  A
O1911      C1912   1.330       .  A
C1912      C1913   1.391       .  A
C1913      H1919   1.082       .  S
O1914      C1915   1.332       .  A
C1915      C1916   1.391       .  A
C1916      H1920   1.082       .  S
C1921      C1926   1.380       .  A
C1921      C1922   1.403       .  A
C1921      O1927   1.315       .  A
C1922      C1923   1.401       .  A
C1922      H1933   1.082       .  S
C1923      C1932   1.364   1_545  A
C1923      C1924   1.380       .  A
C1924      C1925   1.402       .  A
C1924      O1930   1.314   1_545  A
C1925      C1926   1.400       .  A
C1925      H1934   1.082       .  S
C1926      C1929   1.363       .  A
O1927      C1928   1.331       .  A
C1928      C1929   1.390       .  A
C1929      H1935   1.082       .  S
O1930      C1931   1.330       .  A
C1931      C1932   1.391       .  A
C1932      H1936   1.083       .  S
C1937      C1942   1.379       .  A
C1937      C1938   1.411       .  A
C1937      O1943   1.327       .  A
C1938      C1939   1.411       .  A
C1938      H1949   1.082       .  S
C1939      C1948   1.372       .  A
C1939      C1940   1.380       .  A
C1940      C1941   1.403       .  A
C1940      O1946   1.318       .  A
C1941      C1942   1.402       .  A
C1941      H1950   1.082       .  S
C1942      C1945   1.359       .  A
O1943      C1944   1.336       .  A
C1944      C1945   1.393       .  A
C1945      H1951   1.083       .  S
O1946      C1947   1.332       .  A
C1947      C1948   1.396       .  A
C1948      H1952   1.082       .  S
C1953      C1958   1.380       .  A
C1953      C1954   1.413       .  A
C1953      O1959   1.328       .  A
C1954      C1955   1.413   1_556  A
C1954      H1965   1.082       .  S
C1955      C1964   1.373       .  A
C1955      C1956   1.380       .  A
C1956      C1957   1.399       .  A
C1956      O1962   1.316       .  A
C1957      C1958   1.399   1_554  A
C1957      H1966   1.083       .  S
C1958      C1961   1.356       .  A
O1959      C1960   1.336       .  A
C1960      C1961   1.389       .  A
C1961      H1967   1.083       .  S
O1962      C1963   1.329       .  A
C1963      C1964   1.396       .  A
C1964      H1968   1.082       .  S
C1969      C1974   1.380       .  A
C1969      C1970   1.402       .  A
C1969      O1975   1.319       .  A
C1970      C1971   1.402       .  A
C1970      H1981   1.082       .  S
C1971      C1980   1.359       .  A
C1971      C1972   1.380       .  A
C1972      C1973   1.409       .  A
C1972      O1978   1.326       .  A
C1973      C1974   1.408       .  A
C1973      H1982   1.082       .  S
C1974      C1977   1.367       .  A
O1975      C1976   1.331       .  A
C1976      C1977   1.394       .  A
C1977      H1983   1.082       .  S
O1978      C1979   1.334       .  A
C1979      C1980   1.393       .  A
C1980      H1984   1.083       .  S
C1985      C1990   1.380       .  A
C1985      C1986   1.408       .  A
C1985      O1991   1.318       .  A
C1986      C1987   1.405       .  A
C1986      H1997   1.082       .  S
C1987      C1996   1.370       .  A
C1987      C1988   1.380       .  A
C1988      C1989   1.406       .  A
C1988      O1994   1.317       .  A
C1989      C1990   1.403       .  A
C1989      H1998   1.082       .  S
C1990      C1993   1.368       .  A
O1991      C1992   1.332       .  A
C1992      C1993   1.391       .  A
C1993      H1999   1.082       .  S
O1994      C1995   1.332       .  A
C1995      C1996   1.393       .  A
C1996      H2000   1.082       .  S
C2001      C2006   1.380       .  A
C2001      C2002   1.410       .  A
C2001      O2007   1.325       .  A
C2002      C2003   1.410   1_556  A
C2002      H2013   1.082       .  S
C2003      C2012   1.371       .  A
C2003      C2004   1.381       .  A
C2004      C2005   1.398       .  A
C2004      O2010   1.315       .  A
C2005      C2006   1.397   1_554  A
C2005      H2014   1.083       .  S
C2006      C2009   1.355       .  A
O2007      C2008   1.334       .  A
C2008      C2009   1.388       .  A
C2009      H2015   1.083       .  S
O2010      C2011   1.328       .  A
C2011      C2012   1.394       .  A
C2012      H2016   1.082       .  S
C2017      C2022   1.380       .  A
C2017      C2018   1.404       .  A
C2017      O2023   1.317       .  A
C2018      C2019   1.402       .  A
C2018      H2029   1.082       .  S
C2019      C2028   1.364   1_565  A
C2019      C2020   1.380       .  A
C2020      C2021   1.402       .  A
C2020      O2026   1.316   1_565  A
C2021      C2022   1.400       .  A
C2021      H2030   1.082       .  S
C2022      C2025   1.362       .  A
O2023      C2024   1.332       .  A
C2024      C2025   1.391       .  A
C2025      H2031   1.083       .  S
O2026      C2027   1.330       .  A
C2027      C2028   1.392       .  A
C2028      H2032   1.083       .  S
C2033      C2038   1.381       .  A
C2033      C2034   1.402       .  A
C2033      O2039   1.320       .  A
C2034      C2035   1.403       .  A
C2034      H2045   1.082       .  S
C2035      C2044   1.357       .  A
C2035      C2036   1.381       .  A
C2036      C2037   1.402       .  A
C2036      O2042   1.321       .  A
C2037      C2038   1.403       .  A
C2037      H2046   1.082       .  S
C2038      C2041   1.358       .  A
O2039      C2040   1.330       .  A
C2040      C2041   1.393       .  A
C2041      H2047   1.083       .  S
O2042      C2043   1.330       .  A
C2043      C2044   1.393       .  A
C2044      H2048   1.083       .  S
C2049      C2054   1.380       .  A
C2049      C2050   1.402       .  A
C2049      O2055   1.318       .  A
C2050      C2051   1.401       .  A
C2050      H2061   1.082       .  S
C2051      C2060   1.358       .  A
C2051      C2052   1.380       .  A
C2052      C2053   1.408       .  A
C2052      O2058   1.324       .  A
C2053      C2054   1.407       .  A
C2053      H2062   1.082       .  S
C2054      C2057   1.367       .  A
O2055      C2056   1.331       .  A
C2056      C2057   1.394       .  A
C2057      H2063   1.082       .  S
O2058      C2059   1.333       .  A
C2059      C2060   1.392       .  A
C2060      H2064   1.083       .  S
C2065      C2070   1.379       .  A
C2065      C2066   1.406       .  A
C2065      O2071   1.317       .  A
C2066      C2067   1.403       .  A
C2066      H2077   1.082       .  S
C2067      C2076   1.370       .  A
C2067      C2068   1.379       .  A
C2068      C2069   1.408       .  A
C2068      O2074   1.318       .  A
C2069      C2070   1.404       .  A
C2069      H2078   1.082       .  S
C2070      C2073   1.371       .  A
O2071      C2072   1.332       .  A
C2072      C2073   1.392       .  A
C2073      H2079   1.082       .  S
O2074      C2075   1.333       .  A
C2075      C2076   1.392       .  A
C2076      H2080   1.082       .  S
C2081      C2086   1.379       .  A
C2081      C2082   1.416       .  A
C2081      O2087   1.330       .  A
C2082      C2083   1.416       .  A
C2082      H2093   1.082       .  S
C2083      C2092   1.378       .  A
C2083      C2084   1.380       .  A
C2084      C2085   1.399       .  A
C2084      O2090   1.315       .  A
C2085      C2086   1.398       .  A
C2085      H2094   1.083       .  S
C2086      C2089   1.356       .  A
O2087      C2088   1.337       .  A
C2088      C2089   1.390       .  A
C2089      H2095   1.083       .  S
O2090      C2091   1.329       .  A
C2091      C2092   1.399       .  A
C2092      H2096   1.082       .  S
C2097      C2102   1.380       .  A
C2097      C2098   1.400       .  A
C2097      O2103   1.316       .  A
C2098      C2099   1.399       .  A
C2098      H2109   1.082       .  S
C2099      C2108   1.358       .  A
C2099      C2100   1.379       .  A
C2100      C2101   1.410       .  A
C2100      O2106   1.325       .  A
C2101      C2102   1.409       .  A
C2101      H2110   1.082       .  S
C2102      C2105   1.370       .  A
O2103      C2104   1.330       .  A
C2104      C2105   1.396       .  A
C2105      H2111   1.082       .  S
O2106      C2107   1.335       .  A
C2107      C2108   1.391       .  A
C2108      H2112   1.083       .  S
C2113      C2118   1.380       .  A
C2113      C2114   1.398       .  A
C2113      O2119   1.315       .  A
C2114      C2115   1.397       .  A
C2114      H2125   1.082       .  S
C2115      C2124   1.354       .  A
C2115      C2116   1.380       .  A
C2116      C2117   1.412       .  A
C2116      O2122   1.327       .  A
C2117      C2118   1.411       .  A
C2117      H2126   1.082       .  S
C2118      C2121   1.372       .  A
O2119      C2120   1.329       .  A
C2120      C2121   1.397       .  A
C2121      H2127   1.082       .  S
O2122      C2123   1.336       .  A
C2123      C2124   1.389       .  A
C2124      H2128   1.083       .  S
C2129      C2134   1.380       .  A
C2129      C2130   1.400       .  A
C2129      O2135   1.317       .  A
C2130      C2131   1.400       .  A
C2130      H2141   1.082       .  S
C2131      C2140   1.358       .  A
C2131      C2132   1.379       .  A
C2132      C2133   1.415       .  A
C2132      O2138   1.330       .  A
C2133      C2134   1.414       .  A
C2133      H2142   1.082       .  S
C2134      C2137   1.375       .  A
O2135      C2136   1.330       .  A
C2136      C2137   1.397       .  A
C2137      H2143   1.082       .  S
O2138      C2139   1.337       .  A
C2139      C2140   1.390       .  A
C2140      H2144   1.083       .  S
C2145      C2150   1.381       .  A
C2145      C2146   1.400       .  A
C2145      O2151   1.320       .  A
C2146      C2147   1.401       .  A
C2146      H2157   1.082       .  S
C2147      C2156   1.354       .  A
C2147      C2148   1.381       .  A
C2148      C2149   1.401       .  A
C2148      O2154   1.321   1_565  A
C2149      C2150   1.403       .  A
C2149      H2158   1.082       .  S
C2150      C2153   1.356       .  A
O2151      C2152   1.330       .  A
C2152      C2153   1.393       .  A
C2153      H2159   1.083       .  S
O2154      C2155   1.330       .  A
C2155      C2156   1.392   1_545  A
C2156      H2160   1.083   1_565  S
C2161      C2166   1.380       .  A
C2161      C2162   1.405       .  A
C2161      O2167   1.316       .  A
C2162      C2163   1.403       .  A
C2162      H2173   1.082       .  S
C2163      C2172   1.366       .  A
C2163      C2164   1.380       .  A
C2164      C2165   1.402       .  A
C2164      O2170   1.314       .  A
C2165      C2166   1.399       .  A
C2165      H2174   1.082       .  S
C2166      C2169   1.363       .  A
O2167      C2168   1.332       .  A
C2168      C2169   1.390       .  A
C2169      H2175   1.083       .  S
O2170      C2171   1.330       .  A
C2171      C2172   1.392       .  A
C2172      H2176   1.082       .  S
C2177      C2182   1.380       .  A
C2177      C2178   1.400       .  A
C2177      O2183   1.316       .  A
C2178      C2179   1.399       .  A
C2178      H2189   1.082       .  S
C2179      C2188   1.357       .  A
C2179      C2180   1.380       .  A
C2180      C2181   1.408       .  A
C2180      O2186   1.324       .  A
C2181      C2182   1.408       .  A
C2181      H2190   1.082       .  S
C2182      C2185   1.368       .  A
O2183      C2184   1.330       .  A
C2184      C2185   1.395       .  A
C2185      H2191   1.082       .  S
O2186      C2187   1.334       .  A
C2187      C2188   1.391       .  A
C2188      H2192   1.083       .  S
C2193      C2198   1.380       .  A
C2193      C2194   1.400       .  A
C2193      O2199   1.316       .  A
C2194      C2195   1.399       .  A
C2194      H2205   1.082       .  S
C2195      C2204   1.357       .  A
C2195      C2196   1.379       .  A
C2196      C2197   1.412       .  A
C2196      O2202   1.327       .  A
C2197      C2198   1.412       .  A
C2197      H2206   1.082       .  S
C2198      C2201   1.373       .  A
O2199      C2200   1.330       .  A
C2200      C2201   1.397       .  A
C2201      H2207   1.082       .  S
O2202      C2203   1.336       .  A
C2203      C2204   1.390       .  A
C2204      H2208   1.083       .  S
C2209      C2214   1.380       .  A
C2209      C2210   1.414       .  A
C2209      O2215   1.330       .  A
C2210      C2211   1.414   1_554  A
C2210      H2221   1.082       .  S
C2211      C2220   1.374       .  A
C2211      C2212   1.380       .  A
C2212      C2213   1.396       .  A
C2212      O2218   1.314       .  A
C2213      C2214   1.396   1_556  A
C2213      H2222   1.083       .  S
C2214      C2217   1.352       .  A
O2215      C2216   1.337       .  A
C2216      C2217   1.389       .  A
C2217      H2223   1.083       .  S
O2218      C2219   1.328       .  A
C2219      C2220   1.397       .  A
C2220      H2224   1.082       .  S
C2225      C2230   1.381       .  A
C2225      C2226   1.397       .  A
C2225      O2231   1.314       .  A
C2226      C2227   1.396       .  A
C2226      H2237   1.082       .  S
C2227      C2236   1.353       .  A
C2227      C2228   1.380       .  A
C2228      C2229   1.409       .  A
C2228      O2234   1.324       .  A
C2229      C2230   1.409       .  A
C2229      H2238   1.082       .  S
C2230      C2233   1.368       .  A
O2231      C2232   1.328       .  A
C2232      C2233   1.395       .  A
C2233      H2239   1.082       .  S
O2234      C2235   1.334       .  A
C2235      C2236   1.389       .  A
C2236      H2240   1.083       .  S
C2241      C2246   1.380       .  A
C2241      C2242   1.400       .  A
C2241      O2247   1.315       .  A
C2242      C2243   1.399       .  A
C2242      H2253   1.083       .  S
C2243      C2252   1.357       .  A
C2243      C2244   1.380       .  A
C2244      C2245   1.408       .  A
C2244      O2250   1.323       .  A
C2245      C2246   1.407       .  A
C2245      H2254   1.082       .  S
C2246      C2249   1.369       .  A
O2247      C2248   1.330       .  A
C2248      C2249   1.394       .  A
C2249      H2255   1.082       .  S
O2250      C2251   1.333       .  A
C2251      C2252   1.391       .  A
C2252      H2256   1.083       .  S
C2257      C2262   1.380       .  A
C2257      C2258   1.407       .  A
C2257      O2263   1.318       .  A
C2258      C2259   1.404       .  A
C2258      H2269   1.082       .  S
C2259      C2268   1.369       .  A
C2259      C2260   1.380       .  A
C2260      C2261   1.407       .  A
C2260      O2266   1.318       .  A
C2261      C2262   1.404       .  A
C2261      H2270   1.082       .  S
C2262      C2265   1.368       .  A
O2263      C2264   1.333       .  A
C2264      C2265   1.392       .  A
C2265      H2271   1.082       .  S
O2266      C2267   1.333       .  A
C2267      C2268   1.392       .  A
C2268      H2272   1.082       .  S
C2273      C2278   1.379       .  A
C2273      C2274   1.415       .  A
C2273      O2279   1.330       .  A
C2274      C2275   1.414   1_554  A
C2274      H2285   1.082       .  S
C2275      C2284   1.377       .  A
C2275      C2276   1.380       .  A
C2276      C2277   1.398       .  A
C2276      O2282   1.314       .  A
C2277      C2278   1.397   1_556  A
C2277      H2286   1.083       .  S
C2278      C2281   1.355       .  A
O2279      C2280   1.337       .  A
C2280      C2281   1.389       .  A
C2281      H2287   1.083       .  S
O2282      C2283   1.329       .  A
C2283      C2284   1.398       .  A
C2284      H2288   1.082       .  S
C2289      C2294   1.380       .  A
C2289      C2290   1.402       .  A
C2289      O2295   1.314       .  A
C2290      C2291   1.399       .  A
C2290      H2301   1.082       .  S
C2291      C2300   1.363       .  A
C2291      C2292   1.380       .  A
C2292      C2293   1.404       .  A
C2292      O2298   1.315       .  A
C2293      C2294   1.402       .  A
C2293      H2302   1.082       .  S
C2294      C2297   1.366       .  A
O2295      C2296   1.330       .  A
C2296      C2297   1.392       .  A
C2297      H2303   1.083       .  S
O2298      C2299   1.331       .  A
C2299      C2300   1.390       .  A
C2300      H2304   1.082       .  S
C2305      C2310   1.380       .  A
C2305      C2306   1.401       .  A
C2305      O2311   1.313   1_545  A
C2306      C2307   1.398       .  A
C2306      H2317   1.082       .  S
C2307      C2316   1.362       .  A
C2307      C2308   1.380       .  A
C2308      C2309   1.404       .  A
C2308      O2314   1.316       .  A
C2309      C2310   1.402       .  A
C2309      H2318   1.082       .  S
C2310      C2313   1.366   1_545  A
O2311      C2312   1.330       .  A
C2312      C2313   1.391       .  A
C2313      H2319   1.082       .  S
O2314      C2315   1.331       .  A
C2315      C2316   1.389       .  A
C2316      H2320   1.083       .  S
C2321      C2326   1.379       .  A
C2321      C2322   1.409       .  A
C2321      O2327   1.324       .  A
C2322      C2323   1.408       .  A
C2322      H2333   1.082       .  S
C2323      C2332   1.370       .  A
C2323      C2324   1.379       .  A
C2324      C2325   1.405       .  A
C2324      O2330   1.319       .  A
C2325      C2326   1.404       .  A
C2325      H2334   1.082       .  S
C2326      C2329   1.363       .  A
O2327      C2328   1.334       .  A
C2328      C2329   1.393       .  A
C2329      H2335   1.083       .  S
O2330      C2331   1.333       .  A
C2331      C2332   1.395       .  A
C2332      H2336   1.082       .  S
C2337      C2342   1.379       .  A
C2337      C2338   1.412       .  A
C2337      O2343   1.327       .  A
C2338      C2339   1.412       .  A
C2338      H2349   1.082       .  S
C2339      C2348   1.373       .  A
C2339      C2340   1.380       .  A
C2340      C2341   1.401       .  A
C2340      O2346   1.316       .  A
C2341      C2342   1.399       .  A
C2341      H2350   1.082       .  S
C2342      C2345   1.357       .  A
O2343      C2344   1.335       .  A
C2344      C2345   1.391       .  A
C2345      H2351   1.083       .  S
O2346      C2347   1.330       .  A
C2347      C2348   1.397       .  A
C2348      H2352   1.082       .  S
C2353      C2358   1.380       .  A
C2353      C2354   1.407       .  A
C2353      O2359   1.319       .  A
C2354      C2355   1.404       .  A
C2354      H2365   1.082       .  S
C2355      C2364   1.368       .  A
C2355      C2356   1.380       .  A
C2356      C2357   1.407       .  A
C2356      O2362   1.319       .  A
C2357      C2358   1.405       .  A
C2357      H2366   1.082       .  S
C2358      C2361   1.368       .  A
O2359      C2360   1.332       .  A
C2360      C2361   1.392       .  A
C2361      H2367   1.082       .  S
O2362      C2363   1.333       .  A
C2363      C2364   1.391       .  A
C2364      H2368   1.082       .  S
