geometry optimzed in LAMMPS
_audit_creation_date              2020-12-01 
_audit_creation_method            'lammps2cif' 
_symmetry_space_group_name_H-M    'P1' 
_symmetry_Int_Tables_number       1 
_symmetry_cell_setting            triclinic 
loop_ 
_symmetry_equiv_pos_as_xyz 
  x,y,z 
_cell_length_a                    17.92841141 
_cell_length_b                    90.00199568680445 
_cell_length_c                    46.068681215630676 
_cell_angle_alpha                 90.18150749084323 
_cell_angle_beta                  90.00132586254048 
_cell_angle_gamma                 89.99651168747506 
loop_ 
_atom_site_label 
_atom_site_type_symbol 
_atom_site_fract_x 
_atom_site_fract_y 
_atom_site_fract_z 
_atom_site_charge 
O1          O  0.00018221  0.93151394  0.51892210    -0.72200
O2          O  0.03943489  0.93352692  0.43692814    -0.72300
O3          O  0.04998926  0.91224716  0.47811255    -0.72300
O4          O  0.98749610  0.95277200  0.47771805    -0.72400
O5          O  0.10412447  0.96012060  0.48694725    -0.72300
O6          O  0.16717449  0.91927083  0.48727415    -0.72300
O7          O  0.15613905  0.94073189  0.44644106    -0.72300
O8          O  0.11727924  0.93869840  0.52776366    -0.72300
Ni9        Ni  0.01506029  0.93227280  0.47756411     1.25400
Ni10       Ni  0.14036747  0.93997903  0.48740958     1.25400
C11         C  0.05284771  0.93473396  0.53667728     0.89900
C12         C  0.10471511  0.93734988  0.42839828     0.89900
C13         C  0.11838284  0.90910630  0.48284141     0.89900
C14         C  0.03511508  0.96305474  0.48246632     0.90100
O15         O  0.31637316  0.81408244  0.51733130    -0.72200
O16         O  0.27436865  0.81196235  0.43553182    -0.72300
O17         O  0.26609492  0.83334409  0.47686997    -0.72300
O18         O  0.32677179  0.79270277  0.47596827    -0.72400
O19         O  0.21012387  0.78557910  0.48571939    -0.72300
O20         O  0.14892744  0.82653861  0.48658759    -0.72300
O21         O  0.15765859  0.80498616  0.44557699    -0.72300
O22         O  0.19927686  0.80711070  0.52671454    -0.72300
Ni23       Ni  0.30011984  0.81325428  0.47604805     1.25400
Ni24       Ni  0.17481110  0.80578578  0.48647084     1.25400
C25         C  0.26411468  0.81101529  0.53532918     0.89900
C26         C  0.20864747  0.80824197  0.42730165     0.89900
C27         C  0.19801734  0.83661160  0.48199112     0.89900
C28         C  0.27884102  0.78251189  0.48087625     0.90100
O29         O  0.31129981  0.93191628  0.19825500    -0.72200
O30         O  0.27042856  0.93387639  0.28015359    -0.72300
O31         O  0.26231430  0.91253490  0.23874466    -0.72300
O32         O  0.32154449  0.95325532  0.23969069    -0.72400
O33         O  0.20451190  0.96023183  0.23022346    -0.72300
O34         O  0.14475843  0.91918666  0.22932343    -0.72300
O35         O  0.15333067  0.94070525  0.27039819    -0.72300
O36         O  0.19381826  0.93873273  0.18915814    -0.72300
Ni37       Ni  0.29562599  0.93266927  0.23957593     1.25400
Ni38       Ni  0.16990275  0.93997601  0.22946309     1.25400
C39         C  0.25868384  0.93493952  0.18038497     0.89900
C40         C  0.20469887  0.93749537  0.28854571     0.89900
C41         C  0.19427084  0.90917817  0.23378594     0.89900
C42         C  0.27319138  0.96338651  0.23493196     0.90100
O43         O  0.99890439  0.81411120  0.19768417    -0.72200
O44         O  0.04033870  0.81197100  0.27949869    -0.72300
O45         O  0.04917718  0.83334399  0.23843772    -0.72300
O46         O  0.98793358  0.79274666  0.23876739    -0.72400
O47         O  0.10453971  0.78555212  0.22903732    -0.72300
O48         O  0.16632459  0.82647618  0.22875682    -0.72300
O49         O  0.15701319  0.80492492  0.26948186    -0.72300
O50         O  0.11597130  0.80707528  0.18833144    -0.72300
Ni51       Ni  0.01487401  0.81327751  0.23897287     1.25400
Ni52       Ni  0.14014991  0.80573713  0.22858157     1.25400
C53         C  0.05122813  0.81100577  0.17970110     0.89900
C54         C  0.10595609  0.80821386  0.28774700     0.89900
C55         C  0.11733239  0.83657465  0.23343594     0.89900
C56         C  0.03574155  0.78252879  0.23376750     0.90100
O57         O  0.32673814  0.43180133  0.69896885    -0.72200
O58         O  0.28591507  0.43399753  0.78086395    -0.72300
O59         O  0.27847402  0.41248195  0.73974887    -0.72300
O60         O  0.33628987  0.45328409  0.74010574    -0.72400
O61         O  0.21900032  0.46006197  0.73055943    -0.72300
O62         O  0.16067844  0.41894076  0.73027132    -0.72300
O63         O  0.16857895  0.44063154  0.77102948    -0.72300
O64         O  0.20899374  0.43841620  0.68981757    -0.72300
Ni65       Ni  0.31108967  0.43266669  0.74029035     1.25400
Ni66       Ni  0.18509877  0.43976262  0.73010577     1.25400
C67         C  0.27402667  0.43472332  0.68107412     0.89900
C68         C  0.22010049  0.43758247  0.78921622     0.89900
C69         C  0.21053135  0.40901543  0.73486402     0.89900
C70         C  0.28757978  0.46332615  0.73518963     0.90100
O71         O  0.01317367  0.31418478  0.69977038    -0.72200
O72         O  0.05284229  0.31223510  0.78173088    -0.72300
O73         O  0.06387206  0.33342242  0.74040250    -0.72300
O74         O  0.99998511  0.29298304  0.74111778    -0.72400
O75         O  0.11630109  0.28545561  0.73184629    -0.72300
O76         O  0.18075087  0.32622371  0.73115954    -0.72300
O77         O  0.16925182  0.30485820  0.77216941    -0.72300
O78         O  0.12993903  0.30681123  0.69085387    -0.72300
Ni79       Ni  0.02826001  0.31344823  0.74111398     1.25400
Ni80       Ni  0.15323221  0.30555112  0.73120214     1.25400
C81         C  0.06567541  0.31091124  0.68198092     0.89900
C82         C  0.11807551  0.30836435  0.79023211     0.89900
C83         C  0.13232053  0.33646282  0.73555110     0.89900
C84         C  0.04722552  0.28262200  0.73642684     0.90100
O85         O  0.00913040  0.43239978  0.01862136    -0.72200
O86         O  0.05179633  0.43443997  0.93689889    -0.72300
O87         O  0.06100194  0.41319204  0.97818302    -0.72300
O88         O  0.99776710  0.45366961  0.97731394    -0.72400
O89         O  0.11385501  0.46111306  0.98725272    -0.72300
O90         O  0.17763730  0.42030818  0.98811173    -0.72300
O91         O  0.16796537  0.44172923  0.94713313    -0.72300
O92         O  0.12566544  0.43969519  0.02821196    -0.72300
Ni93       Ni  0.02572340  0.43318768  0.97736929     1.25400
Ni94       Ni  0.15044429  0.44099547  0.98800517     1.25400
C95         C  0.06105412  0.43560619  0.03671129     0.89900
C96         C  0.11738874  0.43828066  0.92877455     0.89900
C97         C  0.12920660  0.41010477  0.98342631     0.89900
C98         C  0.04499655  0.46399458  0.98230833     0.90100
O99         O  0.32207440  0.31465614  0.02077456    -0.72200
O100        O  0.28267667  0.31262545  0.93876139    -0.72300
O101        O  0.27458736  0.33406233  0.98000338    -0.72300
O102        O  0.33226893  0.29325667  0.97950622    -0.72400
O103        O  0.21479661  0.28647726  0.98869539    -0.72300
O104        O  0.15660054  0.32760590  0.98911527    -0.72300
O105        O  0.16514990  0.30598986  0.94823355    -0.72300
O106        O  0.20414860  0.30804606  0.02957005    -0.72300
Ni107      Ni  0.30714255  0.31387603  0.97940855     1.25400
Ni108      Ni  0.18095132  0.30678090  0.98920703     1.25400
C109        C  0.26906040  0.31170021  0.03850992     0.89900
C110        C  0.21700603  0.30906158  0.93020740     0.89900
C111        C  0.20656309  0.33752980  0.98470639     0.89900
C112        C  0.28344114  0.28321247  0.98421137     0.90100
O113        O  0.12836221  0.18190671  0.45046467    -0.72200
O114        O  0.17052908  0.18407469  0.53224846    -0.72300
O115        O  0.11980776  0.20340053  0.49163333    -0.72300
O116        O  0.17696581  0.16256939  0.49110533    -0.72400
O117        O  0.29470784  0.16895018  0.48133086    -0.72300
O118        O  0.23705071  0.21010658  0.48181926    -0.72300
O119        O  0.28782397  0.19062866  0.52214649    -0.72300
O120        O  0.24604309  0.18845456  0.44102096    -0.72300
Ni121      Ni  0.14468391  0.18276914  0.49174274     1.25400
Ni122      Ni  0.27062110  0.18978543  0.48125648     1.25400
C123        C  0.18084959  0.18477235  0.43243876     0.89900
C124        C  0.23653955  0.18760323  0.54044977     0.89900
C125        C  0.16860033  0.21341274  0.48662512     0.89900
C126        C  0.24474979  0.15905969  0.48601660     0.90100
O127        O  0.43594195  0.06375293  0.44959499    -0.72200
O128        O  0.39626355  0.06178551  0.53155205    -0.72300
O129        O  0.44744457  0.04244466  0.49076979    -0.72300
O130        O  0.38692699  0.08307986  0.49039009    -0.72400
O131        O  0.26944067  0.07628615  0.48114282    -0.72300
O132        O  0.33051132  0.03531766  0.48146325    -0.72300
O133        O  0.27925459  0.05480534  0.52196637    -0.72300
O134        O  0.31855115  0.05678960  0.44066593    -0.72300
Ni135      Ni  0.42087325  0.06299395  0.49093674     1.25400
Ni136      Ni  0.29524101  0.05552893  0.48100477     1.25400
C137        C  0.38315520  0.06067285  0.43180259     0.89900
C138        C  0.33072778  0.05811595  0.54003967     0.89900
C139        C  0.39936464  0.03225344  0.48597599     0.89900
C140        C  0.31872050  0.08635261  0.48560873     0.90100
O141        O  0.12153428  0.06491121  0.76975523    -0.72200
O142        O  0.16368880  0.06282234  0.68795522    -0.72300
O143        O  0.11119469  0.04356312  0.72834996    -0.72300
O144        O  0.17193203  0.08420393  0.72932739    -0.72400
O145        O  0.28906966  0.07738417  0.73906289    -0.72300
O146        O  0.22781676  0.03642760  0.73812552    -0.72300
O147        O  0.28036924  0.05583428  0.69802832    -0.72300
O148        O  0.23861289  0.05793117  0.77915499    -0.72300
Ni149      Ni  0.13787588  0.06411250  0.72847012     1.25400
Ni150      Ni  0.26315498  0.05663115  0.73891637     1.25400
C151        C  0.17371279  0.06179881  0.78776210     0.89900
C152        C  0.22938033  0.05907006  0.67973876     0.89900
C153        C  0.15910709  0.03336691  0.73325347     0.89900
C154        C  0.24001691  0.08746496  0.73445510     0.90100
O155        O  0.44092347  0.18210190  0.77086427    -0.72200
O156        O  0.40211421  0.18407704  0.68884239    -0.72300
O157        O  0.45482085  0.20329243  0.72954519    -0.72300
O158        O  0.39035790  0.16288355  0.73014246    -0.72400
O159        O  0.27349041  0.17014822  0.73920294    -0.72300
O160        O  0.33851677  0.21088164  0.73864607    -0.72300
O161        O  0.28571823  0.19151872  0.69823730    -0.72300
O162        O  0.32416175  0.18953555  0.77959832    -0.72300
Ni163      Ni  0.42626268  0.18284190  0.72949798     1.25400
Ni164      Ni  0.30130108  0.19080680  0.73922154     1.25400
C165        C  0.38830576  0.18542091  0.78856975     0.89900
C166        C  0.33703499  0.18799738  0.68024860     0.89900
C167        C  0.40767488  0.21367855  0.73416900     0.89900
C168        C  0.32180374  0.15988082  0.73486449     0.90100
O169        O  0.44048337  0.56461524  0.94772343    -0.72200
O170        O  0.39871111  0.56249897  0.02951641    -0.72300
O171        O  0.45293692  0.54336032  0.98899608    -0.72300
O172        O  0.38839094  0.58376365  0.98827332    -0.72400
O173        O  0.27188833  0.57650301  0.97851865    -0.72300
O174        O  0.33698558  0.53577605  0.97922355    -0.72300
O175        O  0.28267635  0.55506760  0.01944294    -0.72300
O176        O  0.32407620  0.55718031  0.93831055    -0.72300
Ni177      Ni  0.42432308  0.56380742  0.98900487     1.25400
Ni178      Ni  0.29974671  0.55584715  0.97855088     1.25400
C179        C  0.38851782  0.56131823  0.92971127     0.89900
C180        C  0.33336105  0.55854628  0.03773261     0.89900
C181        C  0.40597928  0.53297806  0.98406651     0.89900
C182        C  0.32002602  0.58676837  0.98315321     0.90100
O183        O  0.12157712  0.68187664  0.94685562    -0.72200
O184        O  0.16190361  0.68384342  0.02880032    -0.72300
O185        O  0.11061946  0.70318778  0.98829542    -0.72300
O186        O  0.17074187  0.66251075  0.98738454    -0.72400
O187        O  0.28821236  0.66926403  0.97809584    -0.72300
O188        O  0.22755770  0.71026093  0.97893690    -0.72300
O189        O  0.27890342  0.69077573  0.01915606    -0.72300
O190        O  0.23898295  0.68878542  0.93788634    -0.72300
Ni191      Ni  0.13698469  0.68262187  0.98819402     1.25400
Ni192      Ni  0.26261231  0.69003433  0.97820990     1.25400
C193        C  0.17421776  0.68496990  0.92904407     0.89900
C194        C  0.22749497  0.68752464  0.03725458     0.89900
C195        C  0.15877730  0.71335883  0.98356869     0.89900
C196        C  0.23890762  0.65921121  0.98252194     0.90100
O197        O  0.23327648  0.53563455  0.23591863    -0.72200
O198        O  0.29185922  0.57673950  0.23642072    -0.72300
O199        O  0.24374491  0.55721176  0.27679793    -0.72300
O200        O  0.28351131  0.55513949  0.19551978    -0.72400
O201        O  0.16613814  0.56182331  0.18587951    -0.72300
O202        O  0.12597140  0.56387113  0.26782390    -0.72300
O203        O  0.17401835  0.58324121  0.22713236    -0.72300
O204        O  0.11595888  0.54245979  0.22655540    -0.72300
Ni205      Ni  0.26731241  0.55592559  0.23647113     1.25400
Ni206      Ni  0.14128230  0.56307081  0.22648599     1.25400
C207        C  0.16463508  0.53239642  0.23135452     0.89900
C208        C  0.24201943  0.58668169  0.23195189     0.89900
C209        C  0.17882705  0.56092648  0.28563747     0.89900
C210        C  0.23189826  0.55826626  0.17742197     0.90100
O211        O  0.43709905  0.68173020  0.26686210    -0.72200
O212        O  0.39507297  0.68381778  0.18508572    -0.72300
O213        O  0.44801316  0.70305771  0.22568785    -0.72300
O214        O  0.38630450  0.66249217  0.22623752    -0.72400
O215        O  0.26931030  0.66942208  0.23603568    -0.72300
O216        O  0.33155827  0.71031354  0.23551881    -0.72300
O217        O  0.27854920  0.69092316  0.19520787    -0.72300
O218        O  0.32019159  0.68883218  0.27632464    -0.72300
Ni219      Ni  0.42083294  0.68253926  0.22558701     1.25400
Ni220      Ni  0.29572176  0.69014639  0.23609448     1.25400
C221        C  0.38493153  0.68486435  0.28489577     0.89900
C222        C  0.32942887  0.68759075  0.17689688     0.89900
C223        C  0.40035468  0.71330153  0.23070185     0.89900
C224        C  0.31816263  0.65929841  0.23135077     0.90100
O225        O  0.06528044  0.93235872  0.69872393    -0.72200
O226        O  0.52339015  0.93442805  0.78053564    -0.72300
O227        O  0.51575248  0.91303659  0.73920196    -0.72300
O228        O  0.07505591  0.95375455  0.74007967    -0.72400
O229        O  0.45815384  0.96072831  0.73036529    -0.72300
O230        O  0.39833715  0.91968778  0.72951853    -0.72300
O231        O  0.40642763  0.94125212  0.77052609    -0.72300
O232        O  0.44793476  0.93917929  0.68937641    -0.72300
Ni233      Ni  0.04909613  0.93316967  0.74001149     1.25400
Ni234      Ni  0.42351775  0.94047502  0.72962682     1.25400
C235        C  0.51287217  0.93535193  0.68074251     0.89900
C236        C  0.45755864  0.93805891  0.78878579     0.89900
C237        C  0.44777942  0.90967948  0.73409733     0.89900
C238        C  0.02677908  0.96388357  0.73518759     0.90100
O239        O  0.25225104  0.81463740  0.69718866    -0.72200
O240        O  0.29214517  0.81260594  0.77913435    -0.72300
O241        O  0.30205124  0.83391040  0.73797866    -0.72300
O242        O  0.24020431  0.79335146  0.73837144    -0.72400
O243        O  0.35687416  0.78607325  0.72900310    -0.72300
O244        O  0.41928008  0.82696336  0.72867284    -0.72300
O245        O  0.40889199  0.80547546  0.76948139    -0.72300
O246        O  0.36938937  0.80752488  0.68820342    -0.72300
Ni247      Ni  0.26744756  0.81386525  0.73852852     1.25400
Ni248      Ni  0.39280009  0.80623779  0.72853087     1.25400
C249        C  0.30483919  0.81146185  0.67936853     0.89900
C250        C  0.35754738  0.80881797  0.78758645     0.89900
C251        C  0.37035535  0.83709572  0.73317879     0.89900
C252        C  0.28794624  0.78309775  0.73356602     0.90100
O253        O  0.24784082  0.93179788  0.01837078    -0.72200
O254        O  0.28937268  0.93397949  0.93656690    -0.72300
O255        O  0.29892673  0.91262682  0.97764969    -0.72300
O256        O  0.23615896  0.95313508  0.97726498    -0.72400
O257        O  0.35247297  0.96050020  0.98703114    -0.72300
O258        O  0.41579370  0.91966684  0.98736533    -0.72300
O259        O  0.40575960  0.94119675  0.94661972    -0.72300
O260        O  0.36462317  0.93900461  0.02775927    -0.72300
Ni261      Ni  0.26387150  0.93264339  0.97708584     1.25400
Ni262      Ni  0.38883962  0.94036753  0.98751521     1.25400
C263        C  0.29999898  0.93498860  0.03637066     0.89900
C264        C  0.35486066  0.93783407  0.92833847     0.89900
C265        C  0.36719223  0.90949608  0.98267463     0.89900
C266        C  0.28357207  0.96342309  0.98227845     0.90100
O267        O  0.06343686  0.81429476  0.01785538    -0.72200
O268        O  0.52319680  0.81234514  0.93590588    -0.72300
O269        O  0.51443067  0.83366634  0.97734247    -0.72300
O270        O  0.07433864  0.79298078  0.97640227    -0.72400
O271        O  0.45735202  0.78592890  0.98573081    -0.72300
O272        O  0.39691716  0.82693570  0.98661758    -0.72300
O273        O  0.40614438  0.80543771  0.94552176    -0.72300
O274        O  0.44599606  0.80740323  0.02680613    -0.72300
Ni275      Ni  0.04807908  0.81355154  0.97651523     1.25400
Ni276      Ni  0.42240283  0.80616228  0.98647485     1.25400
C277        C  0.01074192  0.81122690  0.03565934     0.89900
C278        C  0.45758778  0.80868683  0.92743579     0.89900
C279        C  0.44629595  0.83697812  0.98223270     0.89900
C280        C  0.02612181  0.78281831  0.98110769     0.90100
O281        O  0.37665781  0.56455224  0.76780845    -0.72200
O282        O  0.41726834  0.56236343  0.68589919    -0.72300
O283        O  0.36728928  0.54305145  0.72668641    -0.72300
O284        O  0.42450762  0.58388073  0.72699741    -0.72400
O285        O  0.04242649  0.57749216  0.73643313    -0.72300
O286        O  0.48470352  0.53634085  0.73618306    -0.72300
O287        O  0.03473212  0.55579932  0.69568433    -0.72300
O288        O  0.49451752  0.55800352  0.77691667    -0.72300
Ni289      Ni  0.39218877  0.56368193  0.72648087     1.25400
Ni290      Ni  0.51831248  0.55665938  0.73661602     1.25400
C291        C  0.42947925  0.56167863  0.78568472     0.89900
C292        C  0.48312292  0.55882553  0.67752002     0.89900
C293        C  0.41615900  0.53303758  0.73158054     0.89900
C294        C  0.99240536  0.58738550  0.73186211     0.90100
O295        O  0.18690357  0.68243228  0.76711259    -0.72200
O296        O  0.14644809  0.68439928  0.68521492    -0.72300
O297        O  0.19890629  0.70368488  0.72583880    -0.72300
O298        O  0.13659729  0.66315812  0.72647338    -0.72400
O299        O  0.01951844  0.67016912  0.73589103    -0.72300
O300        O  0.08238136  0.71102532  0.73529489    -0.72300
O301        O  0.02984268  0.69159057  0.69495615    -0.72300
O302        O  0.06992681  0.68961594  0.77620497    -0.72300
Ni303      Ni  0.17142832  0.68318254  0.72579367     1.25400
Ni304      Ni  0.04623437  0.69087885  0.73589723     1.25400
C305        C  0.13443948  0.68561747  0.78497861     0.89900
C306        C  0.08099601  0.68818056  0.67681462     0.89900
C307        C  0.15131148  0.71396502  0.73065258     0.89900
C308        C  0.06830919  0.66001111  0.73139658     0.90100
O309        O  0.19080916  0.56406058  0.44759806    -0.72200
O310        O  0.14977539  0.56218503  0.52946344    -0.72300
O311        O  0.20332408  0.54290458  0.48904465    -0.72300
O312        O  0.13940477  0.58334370  0.48803869    -0.72400
O313        O  0.02268843  0.57613342  0.47853237    -0.72300
O314        O  0.08717294  0.53536621  0.47950106    -0.72300
O315        O  0.03353860  0.55479525  0.51962915    -0.72300
O316        O  0.07419071  0.55667963  0.43841935    -0.72300
Ni317      Ni  0.17502805  0.56336840  0.48890466     1.25400
Ni318      Ni  0.05022911  0.55545971  0.47870557     1.25400
C319        C  0.13862482  0.56075126  0.42969290     0.89900
C320        C  0.08442392  0.55830677  0.53781046     0.89900
C321        C  0.15617848  0.53253904  0.48425713     0.89900
C322        C  0.07102581  0.58637895  0.48301918     0.90100
O323        O  0.37376668  0.68147787  0.44679545    -0.72200
O324        O  0.41456376  0.68367837  0.52868852    -0.72300
O325        O  0.36325967  0.70291541  0.48801865    -0.72300
O326        O  0.42295586  0.66221368  0.48749541    -0.72400
O327        O  0.04043322  0.66889186  0.47801576    -0.72300
O328        O  0.48022131  0.70991523  0.47849471    -0.72300
O329        O  0.03158940  0.69052780  0.51886827    -0.72300
O330        O  0.49117939  0.68831955  0.43764937    -0.72300
Ni331      Ni  0.38941230  0.68234024  0.48811620     1.25400
Ni332      Ni  0.01505636  0.68967274  0.47794212     1.25400
C333        C  0.42633720  0.68449726  0.42890236     0.89900
C334        C  0.48021850  0.68737166  0.53704794     0.89900
C335        C  0.41150714  0.71305399  0.48316950     0.89900
C336        C  0.99104076  0.65887162  0.48257287     0.90100
O337        O  0.26196352  0.43206726  0.51915583    -0.72200
O338        O  0.30249667  0.43395905  0.43725451    -0.72300
O339        O  0.31338171  0.41282089  0.47867753    -0.72300
O340        O  0.24891719  0.45322190  0.47771069    -0.72400
O341        O  0.36502424  0.46082151  0.48714880    -0.72300
O342        O  0.43005819  0.42009353  0.48808350    -0.72300
O343        O  0.41869345  0.44141091  0.44698021    -0.72300
O344        O  0.37852802  0.43951267  0.52823632    -0.72300
Ni345      Ni  0.27748745  0.43277301  0.47783494     1.25400
Ni346      Ni  0.40223912  0.44074866  0.48792337     1.25400
C347        C  0.31422940  0.43538581  0.53701852     0.89900
C348        C  0.36777076  0.43785409  0.42884641     0.89900
C349        C  0.38182483  0.40982431  0.48364568     0.89900
C350        C  0.29595760  0.46361246  0.48244718     0.90100
O351        O  0.47080153  0.28629469  0.48843965    -0.72200
O352        O  0.41165751  0.32736753  0.48890381    -0.72300
O353        O  0.41963564  0.30570538  0.44808648    -0.72300
O354        O  0.46071783  0.30790839  0.52924661    -0.72400
O355        O  0.07824701  0.31462130  0.51996113    -0.72300
O356        O  0.53675257  0.31243272  0.43811023    -0.72300
O357        O  0.52923781  0.33392281  0.47928326    -0.72300
O358        O  0.08787387  0.29316827  0.47876057    -0.72300
Ni359      Ni  0.43649796  0.30656619  0.48898854     1.25400
Ni360      Ni  0.06225675  0.31376512  0.47865576     1.25400
C361        C  0.03939917  0.28308598  0.48370203     0.89900
C362        C  0.46127217  0.33733324  0.48427043     0.89900
C363        C  0.47094564  0.30879372  0.42983713     0.89900
C364        C  0.52574580  0.31164874  0.53791640     0.90100
O365        O  0.07301109  0.43130177  0.19847058    -0.72200
O366        O  0.53344210  0.43338793  0.28047053    -0.72300
O367        O  0.52518418  0.41193465  0.23925825    -0.72300
O368        O  0.08338694  0.45271318  0.23970440    -0.72400
O369        O  0.46602616  0.45955000  0.23045589    -0.72300
O370        O  0.40730086  0.41844808  0.23009401    -0.72300
O371        O  0.41602668  0.44008226  0.27093951    -0.72300
O372        O  0.45518612  0.43796799  0.18962383    -0.72300
Ni373      Ni  0.05799188  0.43210609  0.23983232     1.25400
Ni374      Ni  0.43191606  0.43926268  0.22997469     1.25400
C375        C  0.02007678  0.43428140  0.18071193     0.89900
C376        C  0.46779531  0.43699143  0.28899231     0.89900
C377        C  0.45712969  0.40849887  0.23453245     0.89900
C378        C  0.03470888  0.46278115  0.23494583     0.90100
O379        O  0.25851181  0.31369616  0.20062567    -0.72200
O380        O  0.30153910  0.31164893  0.28231968    -0.72300
O381        O  0.31077228  0.33288724  0.24102637    -0.72300
O382        O  0.24710480  0.29243411  0.24193313    -0.72400
O383        O  0.36306192  0.28493974  0.23190701    -0.72300
O384        O  0.42729226  0.32572009  0.23103063    -0.72300
O385        O  0.41757637  0.30430280  0.27200995    -0.72300
O386        O  0.37493518  0.30635391  0.19095932    -0.72300
Ni387      Ni  0.27528710  0.31290537  0.24186620     1.25400
Ni388      Ni  0.39987585  0.30504252  0.23114864     1.25400
C389        C  0.31031731  0.31046347  0.18250221     0.89900
C390        C  0.36714349  0.30779020  0.29040088     0.89900
C391        C  0.37899052  0.33594593  0.23574780     0.89900
C392        C  0.29417925  0.28208845  0.23686788     0.90100
O393        O  0.18353590  0.06417466  0.94972909    -0.72200
O394        O  0.14204850  0.06196274  0.03152742    -0.72300
O395        O  0.19459256  0.04277248  0.99074606    -0.72300
O396        O  0.13314378  0.08335424  0.99053836    -0.72400
O397        O  0.01603219  0.07647603  0.98082033    -0.72300
O398        O  0.07803629  0.03556274  0.98097635    -0.72300
O399        O  0.02541576  0.05490217  0.02148200    -0.72300
O400        O  0.06651960  0.05712494  0.94032953    -0.72300
Ni401      Ni  0.16754368  0.06329759  0.99101186     1.25400
Ni402      Ni  0.04231547  0.05574294  0.98057985     1.25400
C403        C  0.13123139  0.06109082  0.93172335     0.89900
C404        C  0.07641960  0.05820833  0.03976018     0.89900
C405        C  0.14685063  0.03254914  0.98570331     0.89900
C406        C  0.06497643  0.08657676  0.98554551     0.90100
O407        O  0.48113852  0.21028215  0.98255394    -0.72200
O408        O  0.03944510  0.16916200  0.98176566    -0.72300
O409        O  0.49134354  0.18876691  0.94154153    -0.72300
O410        O  0.03137052  0.19070640  0.02280414    -0.72400
O411        O  0.41398077  0.18404543  0.03246481    -0.72300
O412        O  0.37355739  0.18212176  0.95052155    -0.72300
O413        O  0.42159585  0.16267936  0.99107869    -0.72300
O414        O  0.36380028  0.20347496  0.99192096    -0.72300
Ni415      Ni  0.01503938  0.18998345  0.98186029     1.25400
Ni416      Ni  0.38899335  0.18285800  0.99186026     1.25400
C417        C  0.41253533  0.21353184  0.98717329     0.89900
C418        C  0.98954493  0.15922647  0.98617888     0.89900
C419        C  0.42638852  0.18507871  0.93270538     0.89900
C420        C  0.97977742  0.18758393  0.04091016     0.90100
O421        O  0.47474836  0.03586743  0.23770073    -0.72200
O422        O  0.03640658  0.07680072  0.23873985    -0.72300
O423        O  0.48669007  0.05728777  0.27884756    -0.72300
O424        O  0.52657247  0.05533854  0.19757303    -0.72400
O425        O  0.40973641  0.06239089  0.18795171    -0.72300
O426        O  0.36946761  0.06433080  0.26990270    -0.72300
O427        O  0.41911510  0.08368230  0.22945883    -0.72300
O428        O  0.35797784  0.04306618  0.22837997    -0.72300
Ni429      Ni  0.51029634  0.05605683  0.23852161     1.25400
Ni430      Ni  0.38485487  0.06360568  0.22856240     1.25400
C431        C  0.40589979  0.03284211  0.23304503     0.89900
C432        C  0.48734049  0.08690855  0.23438175     0.89900
C433        C  0.42203848  0.06117215  0.28770297     0.89900
C434        C  0.47521721  0.05863887  0.17948414     0.90100
O435        O  0.18957350  0.18150821  0.27044827    -0.72200
O436        O  0.14742376  0.18363626  0.18868737    -0.72300
O437        O  0.20165144  0.20278180  0.22921802    -0.72300
O438        O  0.13747950  0.16235425  0.22988567    -0.72400
O439        O  0.02094134  0.16957017  0.23970714    -0.72300
O440        O  0.08568242  0.21032153  0.23909314    -0.72300
O441        O  0.03137474  0.19103109  0.19884429    -0.72300
O442        O  0.07312386  0.18888929  0.27994899    -0.72300
Ni443      Ni  0.17322417  0.18232386  0.22917978     1.25400
Ni444      Ni  0.04861859  0.19023590  0.23972491     1.25400
C445        C  0.13767281  0.18478871  0.28849954     0.89900
C446        C  0.08198865  0.18756077  0.18051871     0.89900
C447        C  0.15464340  0.21314531  0.23423720     0.89900
C448        C  0.06913987  0.15932411  0.23499471     0.90100
C449        C  0.04707125  0.14401672  0.23551470    -0.09900
C450        C  0.03391079  0.13088834  0.23566114     0.07700
C451        C  0.02102005  0.11542281  0.23550507     0.09600
C452        C  0.50832840  0.10227639  0.23511477    -0.17200
C453        C  0.99736045  0.18787965  0.07130212    -0.16300
C454        C  0.01744778  0.18800372  0.09628486     0.07700
C455        C  0.04330331  0.18800722  0.12524939     0.09600
C456        C  0.06368536  0.18788176  0.15019480    -0.17200
C457        C  0.49268278  0.05827416  0.14908352    -0.16300
C458        C  0.01258210  0.05804187  0.12408031     0.07700
C459        C  0.03817236  0.05789519  0.09508017     0.09600
C460        C  0.05833381  0.05792543  0.07010609    -0.17200
C461        C  0.00922637  0.14379817  0.98552542    -0.16300
C462        C  0.02065642  0.13061040  0.98517983     0.07700
C463        C  0.03202005  0.11510571  0.98503453     0.09600
C464        C  0.04400894  0.10193752  0.98514157    -0.17200
C465        C  0.26803736  0.26700807  0.23645225    -0.16300
C466        C  0.24123147  0.25471656  0.23593122     0.07700
C467        C  0.20780064  0.24050094  0.23524543     0.09600
C468        C  0.18093431  0.22821489  0.23470478    -0.17200
C469        C  0.40073195  0.35126452  0.23495991    -0.16300
C470        C  0.41334672  0.36440958  0.23447361     0.07700
C471        C  0.42535984  0.37989857  0.23416663     0.09600
C472        C  0.43719631  0.39307579  0.23417189    -0.17200
C473        C  0.38588323  0.30760982  0.32069301    -0.16300
C474        C  0.40656819  0.30768301  0.34560467     0.07700
C475        C  0.43272748  0.30796094  0.37452800     0.09600
C476        C  0.45305953  0.30830551  0.39947642    -0.17200
C477        C  0.38556619  0.43801342  0.39846931    -0.16300
C478        C  0.40552832  0.43795866  0.37346930     0.07700
C479        C  0.43091078  0.43772803  0.34444169     0.09600
C480        C  0.45061970  0.43743059  0.31941632    -0.17200
C481        C  0.44119655  0.35274630  0.48473947    -0.16300
C482        C  0.42915987  0.36591523  0.48487369     0.07700
C483        C  0.41684247  0.38139344  0.48472756     0.09600
C484        C  0.40392874  0.39452708  0.48435608    -0.17200
C485        C  0.18236034  0.51746170  0.48396203    -0.16300
C486        C  0.20920514  0.50517278  0.48359076     0.07700
C487        C  0.24268651  0.49096056  0.48310903     0.09600
C488        C  0.26960007  0.47867760  0.48274036    -0.17200
C489        C  0.04909829  0.60169191  0.48232248    -0.16300
C490        C  0.03620173  0.61482980  0.48198849     0.07700
C491        C  0.02374875  0.63030895  0.48189974     0.09600
C492        C  0.01149153  0.64347300  0.48207699    -0.17200
C493        C  0.99784895  0.68783243  0.56743046    -0.16300
C494        C  0.01778328  0.68813162  0.59242756     0.07700
C495        C  0.04328977  0.68834764  0.62143772     0.09600
C496        C  0.06326758  0.68837836  0.64643447    -0.17200
C497        C  0.06651553  0.55809136  0.56817363    -0.16300
C498        C  0.04639001  0.55806285  0.59315171     0.07700
C499        C  0.02073680  0.55818572  0.62214322     0.09600
C500        C  0.00073087  0.55841269  0.64713376    -0.17200
C501        C  0.01191242  0.60282371  0.73228137    -0.16300
C502        C  0.02333901  0.61601169  0.73241447     0.07700
C503        C  0.03483925  0.63151140  0.73230881     0.09600
C504        C  0.04703237  0.64467028  0.73200115    -0.17200
C505        C  0.17216026  0.01742162  0.98505832    -0.16300
C506        C  0.19843200  0.00509056  0.98437328     0.07700
C507        C  0.23135416  0.99083679  0.98352397     0.09600
C508        C  0.25781054  0.97852103  0.98286448    -0.17200
C509        C  0.38869531  0.89416040  0.98315200    -0.16300
C510        C  0.40132793  0.88101362  0.98331605     0.07700
C511        C  0.41358429  0.86553146  0.98321925     0.09600
C512        C  0.42578347  0.85236824  0.98289330    -0.17200
C513        C  0.26252173  0.76797807  0.73301952    -0.16300
C514        C  0.23619948  0.75565109  0.73242715     0.07700
C515        C  0.20328504  0.74139636  0.73169208     0.09600
C516        C  0.17690124  0.72907426  0.73112917    -0.17200
C517        C  0.44005394  0.80840807  0.89703787    -0.16300
C518        C  0.42018936  0.80831154  0.87202743     0.07700
C519        C  0.39479159  0.80834459  0.84300146     0.09600
C520        C  0.37497074  0.80849329  0.81798835    -0.17200
C521        C  0.43941406  0.93836089  0.81912832    -0.16300
C522        C  0.41908764  0.93845308  0.84408176     0.07700
C523        C  0.39317290  0.93839329  0.87303763     0.09600
C524        C  0.37289202  0.93820969  0.89799301    -0.17200
C525        C  0.39153455  0.85244899  0.73278072    -0.16300
C526        C  0.40383252  0.86560834  0.73272253     0.07700
C527        C  0.41567485  0.88110235  0.73295483     0.09600
C528        C  0.42755578  0.89427605  0.73337634    -0.17200
C529        C  0.41331056  0.68361844  0.39823415    -0.16300
C530        C  0.40785274  0.68330213  0.37216616     0.07700
C531        C  0.40379306  0.68341413  0.34157457     0.09600
C532        C  0.39822450  0.68389191  0.31552438    -0.17200
C533        C  0.15155455  0.56164388  0.39903656    -0.16300
C534        C  0.15690031  0.56205955  0.37297817     0.07700
C535        C  0.16075379  0.56211710  0.34238711     0.09600
C536        C  0.16604222  0.56178189  0.31631785    -0.17200
C537        C  0.14060027  0.51719150  0.23194395    -0.16300
C538        C  0.11545971  0.50477219  0.23266217     0.07700
C539        C  0.08394424  0.49040072  0.23359751     0.09600
C540        C  0.05878361  0.47798319  0.23432680    -0.17200
C541        C  0.29712320  0.64394461  0.23198010    -0.16300
C542        C  0.28500542  0.63078315  0.23233892     0.07700
C543        C  0.27344781  0.61528532  0.23250979     0.09600
C544        C  0.26185440  0.60210301  0.23240432    -0.17200
C545        C  0.14712970  0.68464949  0.81564182    -0.16300
C546        C  0.15232657  0.68413550  0.84169759     0.07700
C547        C  0.15608111  0.68394823  0.87228823     0.09600
C548        C  0.16135745  0.68418601  0.89836131    -0.17200
C549        C  0.13401591  0.72852659  0.98317121    -0.16300
C550        C  0.10839488  0.74091454  0.98266054     0.07700
C551        C  0.07639363  0.75525485  0.98199488     0.09600
C552        C  0.05080617  0.76764562  0.98149139    -0.17200
C553        C  0.24506271  0.68783558  0.06764787    -0.16300
C554        C  0.26510740  0.68797779  0.09263564     0.07700
C555        C  0.29089278  0.68800487  0.12161018     0.09600
C556        C  0.31120699  0.68789734  0.14656447    -0.17200
C557        C  0.40169161  0.56229965  0.89907573    -0.16300
C558        C  0.40716585  0.56277439  0.87302185     0.07700
C559        C  0.41112718  0.56287719  0.84242776     0.09600
C560        C  0.41651449  0.56255507  0.81635731    -0.17200
C561        C  0.24943009  0.55797933  0.14702515    -0.16300
C562        C  0.26940091  0.55790714  0.12202796     0.07700
C563        C  0.29506412  0.55798877  0.09303867     0.09600
C564        C  0.31526265  0.55818153  0.06807302    -0.17200
C565        C  0.29789600  0.60206995  0.98246403    -0.16300
C566        C  0.28478596  0.61519881  0.98206765     0.07700
C567        C  0.27206026  0.63066880  0.98187780     0.09600
C568        C  0.25957960  0.64382444  0.98199909    -0.17200
C569        C  0.40041281  0.18449141  0.81927288    -0.16300
C570        C  0.40516933  0.18404674  0.84534680     0.07700
C571        C  0.40851391  0.18395595  0.87594638     0.09600
C572        C  0.41357541  0.18426159  0.90202359    -0.17200
C573        C  0.16016840  0.06261598  0.81840328    -0.16300
C574        C  0.15434789  0.06286381  0.84446251     0.07700
C575        C  0.15000324  0.06266623  0.87504706     0.09600
C576        C  0.14436229  0.06212258  0.90109048    -0.17200
C577        C  0.13417101  0.01821154  0.73354991    -0.16300
C578        C  0.10854369  0.00582399  0.73393317     0.07700
C579        C  0.07665393  0.99147391  0.73444440     0.09600
C580        C  0.05122682  0.97907021  0.73484819    -0.17200
C581        C  0.26086588  0.10284071  0.73513269    -0.16300
C582        C  0.27350793  0.11598940  0.73546450     0.07700
C583        C  0.28640698  0.13145428  0.73555708     0.09600
C584        C  0.29962156  0.14458035  0.73537777    -0.17200
C585        C  0.40925809  0.06197465  0.31838775    -0.16300
C586        C  0.40412096  0.06224369  0.34446370     0.07700
C587        C  0.40058540  0.06209924  0.37505832     0.09600
C588        C  0.39559632  0.06161738  0.40112242    -0.17200
C589        C  0.31324162  0.05794617  0.57044116    -0.16300
C590        C  0.29329359  0.05801962  0.59544099     0.07700
C591        C  0.26764747  0.05828782  0.62443081     0.09600
C592        C  0.24746136  0.05861491  0.64939591    -0.17200
C593        C  0.15110126  0.18385787  0.31912481    -0.16300
C594        C  0.15694473  0.18346039  0.34517184     0.07700
C595        C  0.16145169  0.18346091  0.37575550     0.09600
C596        C  0.16733410  0.18385583  0.40180628    -0.17200
C597        C  0.06358099  0.26789104  0.48421168    -0.16300
C598        C  0.08868861  0.25546775  0.48479143     0.07700
C599        C  0.12001743  0.24107841  0.48553117     0.09600
C600        C  0.14492000  0.22863881  0.48611164    -0.17200
C601        C  0.31990143  0.18824693  0.64981965    -0.16300
C602        C  0.30019876  0.18830545  0.62479099     0.07700
C603        C  0.27475462  0.18821416  0.59577142     0.09600
C604        C  0.25465022  0.18800658  0.57079217    -0.17200
C605        C  0.29808600  0.10173037  0.48516245    -0.16300
C606        C  0.28637981  0.11490814  0.48502485     0.07700
C607        C  0.27533660  0.13042154  0.48513387     0.09600
C608        C  0.26415967  0.14361769  0.48543760    -0.17200
C609        C  0.28173179  0.31241345  0.06921467    -0.16300
C610        C  0.28706706  0.31253556  0.09529068     0.07700
C611        C  0.29114180  0.31218336  0.12587186     0.09600
C612        C  0.29681760  0.31153832  0.15190272    -0.17200
C613        C  0.38862033  0.22874444  0.98672219    -0.16300
C614        C  0.36360760  0.24117537  0.98613993     0.07700
C615        C  0.33227242  0.25556401  0.98536409     0.09600
C616        C  0.30728899  0.26799673  0.98474819    -0.17200
C617        C  0.04770471  0.43451689  0.06731991    -0.16300
C618        C  0.04213421  0.43384661  0.09335189     0.07700
C619        C  0.03813717  0.43346256  0.12393417     0.09600
C620        C  0.03281379  0.43356671  0.15001082    -0.17200
C621        C  0.43232900  0.51791377  0.98373836    -0.16300
C622        C  0.45914996  0.50562332  0.98338605     0.07700
C623        C  0.49244365  0.49139485  0.98294802     0.09600
C624        C  0.01908316  0.47908877  0.98260735    -0.17200
C625        C  0.15078429  0.39477963  0.98421897    -0.16300
C626        C  0.16326411  0.38163121  0.98472355     0.07700
C627        C  0.17511560  0.36614012  0.98505586     0.09600
C628        C  0.18681065  0.35295949  0.98506541    -0.17200
C629        C  0.05332383  0.31190716  0.65129559    -0.16300
C630        C  0.04828440  0.31245909  0.62523502     0.07700
C631        C  0.04452580  0.31268789  0.59464148     0.09600
C632        C  0.03906267  0.31246342  0.56857081    -0.17200
C633        C  0.02108337  0.26754209  0.73604934    -0.16300
C634        C  0.49428994  0.25524916  0.73560859     0.07700
C635        C  0.46087238  0.24103171  0.73503698     0.09600
C636        C  0.43400346  0.22874546  0.73458022    -0.17200
C637        C  0.19991655  0.30864786  0.89977495    -0.16300
C638        C  0.18036086  0.30838022  0.87473069     0.07700
C639        C  0.15522894  0.30819001  0.84566921     0.09600
C640        C  0.13552607  0.30816986  0.82063842    -0.17200
C641        C  0.28712706  0.43390508  0.65040651    -0.16300
C642        C  0.29253727  0.43366871  0.62433544     0.07700
C643        C  0.29637175  0.43387694  0.59374319     0.09600
C644        C  0.30157760  0.43440991  0.56768700    -0.17200
C645        C  0.31148579  0.47853789  0.73456162    -0.16300
C646        C  0.33642242  0.49097281  0.73384448     0.07700
C647        C  0.36761893  0.50537117  0.73292925     0.09600
C648        C  0.39246696  0.51781303  0.73221256    -0.17200
C649        C  0.13591755  0.43850649  0.89846567    -0.16300
C650        C  0.15639854  0.43850234  0.87352975     0.07700
C651        C  0.18231087  0.43831611  0.84457217     0.09600
C652        C  0.20243872  0.43803543  0.81959725    -0.17200
C653        C  0.19075419  0.39358492  0.73446582    -0.16300
C654        C  0.17895704  0.38040649  0.73437651     0.07700
C655        C  0.16690030  0.36491836  0.73454650     0.09600
C656        C  0.15419620  0.35177564  0.73490479    -0.17200
C657        C  0.02349145  0.81208018  0.06634423    -0.16300
C658        C  0.02875863  0.81242474  0.09241481     0.07700
C659        C  0.03264113  0.81237531  0.12300726     0.09600
C660        C  0.03808422  0.81194856  0.14906285    -0.17200
C661        C  0.42571468  0.72842498  0.23121030    -0.16300
C662        C  0.45185826  0.74076677  0.23179799     0.07700
C663        C  0.98446842  0.75504788  0.23256422     0.09600
C664        C  0.01054676  0.76739484  0.23318530    -0.17200
C665        C  0.28678118  0.93405846  0.06700699    -0.16300
C666        C  0.28120874  0.93366777  0.09306157     0.07700
C667        C  0.27711918  0.93367330  0.12365196     0.09600
C668        C  0.27165627  0.93405962  0.14971526    -0.17200
C669        C  0.29762035  0.97857465  0.23461110    -0.16300
C670        C  0.32309217  0.99097500  0.23421184     0.07700
C671        C  0.35508267  0.00531657  0.23369953     0.09600
C672        C  0.38082043  0.01769542  0.23331912    -0.17200
C673        C  0.13825543  0.85194063  0.23296271    -0.16300
C674        C  0.15041257  0.86510422  0.23278233     0.07700
C675        C  0.16216939  0.88060051  0.23284506     0.09600
C676        C  0.17403017  0.89377522  0.23314219    -0.17200
C677        C  0.27741748  0.81199022  0.56596681    -0.16300
C678        C  0.28295110  0.81247293  0.59202253     0.07700
C679        C  0.28689413  0.81259770  0.62261591     0.09600
C680        C  0.29216390  0.81230188  0.64868591    -0.17200
C681        C  0.30377239  0.76735562  0.48121869    -0.16300
C682        C  0.32943674  0.75497093  0.48165448     0.07700
C683        C  0.36141020  0.74062808  0.48224082     0.09600
C684        C  0.38693210  0.72823226  0.48272077    -0.17200
C685        C  0.19047192  0.80789932  0.39696352    -0.16300
C686        C  0.17013598  0.80775401  0.37201182     0.07700
C687        C  0.14422465  0.80774362  0.34305509     0.09600
C688        C  0.12395736  0.80787539  0.31809647    -0.17200
C689        C  0.04038773  0.93392379  0.56737481    -0.16300
C690        C  0.03528858  0.93367092  0.59345117     0.07700
C691        C  0.03152035  0.93385040  0.62404598     0.09600
C692        C  0.02609948  0.93436753  0.65010232    -0.17200
C693        C  0.42433967  0.01710397  0.48535429    -0.16300
C694        C  0.45040050  0.00475560  0.48465058     0.07700
C695        C  0.48313751  0.99048578  0.48375882     0.09600
C696        C  0.00947213  0.97816025  0.48306620    -0.17200
C697        C  0.12192173  0.93767004  0.39797820    -0.16300
C698        C  0.14164313  0.93782178  0.37295401     0.07700
C699        C  0.16702090  0.93786311  0.34392617     0.09600
C700        C  0.18695744  0.93777306  0.31892503    -0.17200
C701        C  0.13984050  0.89376743  0.48324294    -0.16300
C702        C  0.15250997  0.88062185  0.48331629     0.07700
C703        C  0.16489098  0.86514393  0.48310804     0.09600
C704        C  0.17725635  0.85198756  0.48270369    -0.17200
O705        O  0.50018230  0.93151395  0.51892209    -0.72200
O706        O  0.53943506  0.93352693  0.43692812    -0.72300
O707        O  0.54998917  0.91224717  0.47811255    -0.72300
O708        O  0.48749623  0.95277200  0.47771803    -0.72400
O709        O  0.60412455  0.96012061  0.48694725    -0.72300
O710        O  0.66717446  0.91927080  0.48727413    -0.72300
O711        O  0.65613922  0.94073190  0.44644107    -0.72300
O712        O  0.61727928  0.93869839  0.52776365    -0.72300
Ni713      Ni  0.51506032  0.93227281  0.47756409     1.25400
Ni714      Ni  0.64036745  0.93997901  0.48740957     1.25400
C715        C  0.55284789  0.93473397  0.53667727     0.89900
C716        C  0.60471551  0.93734989  0.42839830     0.89900
C717        C  0.61838248  0.90910628  0.48284141     0.89900
C718        C  0.53511492  0.96305473  0.48246631     0.90100
O719        O  0.81637334  0.81408244  0.51733131    -0.72200
O720        O  0.77436885  0.81196236  0.43553181    -0.72300
O721        O  0.76609516  0.83334409  0.47686997    -0.72300
O722        O  0.82677196  0.79270275  0.47596829    -0.72400
O723        O  0.71012392  0.78557911  0.48571937    -0.72300
O724        O  0.64892767  0.82653863  0.48658759    -0.72300
O725        O  0.65765886  0.80498616  0.44557699    -0.72300
O726        O  0.69927701  0.80711070  0.52671452    -0.72300
Ni727      Ni  0.80011997  0.81325427  0.47604807     1.25400
Ni728      Ni  0.67481118  0.80578579  0.48647083     1.25400
C729        C  0.76411504  0.81101529  0.53532918     0.89900
C730        C  0.70864784  0.80824198  0.42730164     0.89900
C731        C  0.69801759  0.83661161  0.48199112     0.89900
C732        C  0.77884099  0.78251188  0.48087625     0.90100
O733        O  0.81129988  0.93191627  0.19825502    -0.72200
O734        O  0.77042859  0.93387637  0.28015359    -0.72300
O735        O  0.76231417  0.91253491  0.23874467    -0.72300
O736        O  0.82154447  0.95325530  0.23969071    -0.72400
O737        O  0.70451194  0.96023184  0.23022344    -0.72300
O738        O  0.64475836  0.91918667  0.22932341    -0.72300
O739        O  0.65333074  0.94070526  0.27039822    -0.72300
O740        O  0.69381836  0.93873273  0.18915812    -0.72300
Ni741      Ni  0.79562606  0.93266926  0.23957594     1.25400
Ni742      Ni  0.66990287  0.93997601  0.22946308     1.25400
C743        C  0.75868396  0.93493952  0.18038498     0.89900
C744        C  0.70469897  0.93749538  0.28854571     0.89900
C745        C  0.69427062  0.90917818  0.23378594     0.89900
C746        C  0.77319138  0.96338649  0.23493196     0.90100
O747        O  0.49890464  0.81411121  0.19768418    -0.72200
O748        O  0.54033881  0.81197101  0.27949867    -0.72300
O749        O  0.54917739  0.83334399  0.23843769    -0.72300
O750        O  0.48793379  0.79274665  0.23876739    -0.72400
O751        O  0.60453991  0.78555210  0.22903733    -0.72300
O752        O  0.66632481  0.82647617  0.22875683    -0.72300
O753        O  0.65701331  0.80492493  0.26948188    -0.72300
O754        O  0.61597149  0.80707529  0.18833145    -0.72300
Ni755      Ni  0.51487424  0.81327750  0.23897284     1.25400
Ni756      Ni  0.64015010  0.80573712  0.22858159     1.25400
C757        C  0.55122823  0.81100578  0.17970111     0.89900
C758        C  0.60595615  0.80821386  0.28774701     0.89900
C759        C  0.61733262  0.83657465  0.23343594     0.89900
C760        C  0.53574178  0.78252880  0.23376750     0.90100
O761        O  0.82673818  0.43180131  0.69896885    -0.72200
O762        O  0.78591512  0.43399751  0.78086399    -0.72300
O763        O  0.77847391  0.41248194  0.73974890    -0.72300
O764        O  0.83628993  0.45328407  0.74010575    -0.72400
O765        O  0.71900037  0.46006197  0.73055941    -0.72300
O766        O  0.66067834  0.41894077  0.73027129    -0.72300
O767        O  0.66857905  0.44063155  0.77102949    -0.72300
O768        O  0.70899375  0.43841622  0.68981755    -0.72300
Ni769      Ni  0.81108984  0.43266666  0.74029037     1.25400
Ni770      Ni  0.68509884  0.43976263  0.73010576     1.25400
C771        C  0.77402660  0.43472332  0.68107411     0.89900
C772        C  0.72010058  0.43758247  0.78921619     0.89900
C773        C  0.71053122  0.40901543  0.73486402     0.89900
C774        C  0.78757988  0.46332617  0.73518963     0.90100
O775        O  0.51317382  0.31418478  0.69977035    -0.72200
O776        O  0.55284220  0.31223511  0.78173090    -0.72300
O777        O  0.56387214  0.33342244  0.74040250    -0.72300
O778        O  0.49998490  0.29298307  0.74111781    -0.72400
O779        O  0.61630084  0.28545561  0.73184627    -0.72300
O780        O  0.68075085  0.32622368  0.73115955    -0.72300
O781        O  0.66925173  0.30485817  0.77216943    -0.72300
O782        O  0.62993917  0.30681121  0.69085387    -0.72300
Ni783      Ni  0.52825995  0.31344825  0.74111397     1.25400
Ni784      Ni  0.65323218  0.30555109  0.73120216     1.25400
C785        C  0.56567584  0.31091123  0.68198090     0.89900
C786        C  0.61807558  0.30836435  0.79023212     0.89900
C787        C  0.63232048  0.33646282  0.73555111     0.89900
C788        C  0.54722504  0.28262203  0.73642685     0.90100
O789        O  0.50913032  0.43239976  0.01862138    -0.72200
O790        O  0.55179630  0.43443996  0.93689885    -0.72300
O791        O  0.56100188  0.41319204  0.97818299    -0.72300
O792        O  0.49776717  0.45366958  0.97731393    -0.72400
O793        O  0.61385498  0.46111307  0.98725274    -0.72300
O794        O  0.67763726  0.42030818  0.98811174    -0.72300
O795        O  0.66796525  0.44172924  0.94713315    -0.72300
O796        O  0.62566534  0.43969521  0.02821194    -0.72300
Ni797      Ni  0.52572342  0.43318766  0.97736928     1.25400
Ni798      Ni  0.65044428  0.44099549  0.98800519     1.25400
C799        C  0.56105406  0.43560619  0.03671130     0.89900
C800        C  0.61738867  0.43828066  0.92877460     0.89900
C801        C  0.62920633  0.41010474  0.98342630     0.89900
C802        C  0.54499663  0.46399457  0.98230833     0.90100
O803        O  0.82207451  0.31465613  0.02077455    -0.72200
O804        O  0.78267648  0.31262543  0.93876141    -0.72300
O805        O  0.77458726  0.33406231  0.98000339    -0.72300
O806        O  0.83226885  0.29325666  0.97950623    -0.72400
O807        O  0.71479643  0.28647727  0.98869538    -0.72300
O808        O  0.65660047  0.32760590  0.98911527    -0.72300
O809        O  0.66514971  0.30598986  0.94823357    -0.72300
O810        O  0.70414862  0.30804608  0.02957005    -0.72300
Ni811      Ni  0.80714255  0.31387602  0.97940855     1.25400
Ni812      Ni  0.68095130  0.30678091  0.98920704     1.25400
C813        C  0.76906035  0.31170020  0.03850993     0.89900
C814        C  0.71700559  0.30906158  0.93020742     0.89900
C815        C  0.70656289  0.33752981  0.98470639     0.89900
C816        C  0.78344086  0.28321246  0.98421137     0.90100
O817        O  0.62836203  0.18190670  0.45046471    -0.72200
O818        O  0.67052910  0.18407468  0.53224846    -0.72300
O819        O  0.61980781  0.20340053  0.49163336    -0.72300
O820        O  0.67696578  0.16256938  0.49110532    -0.72400
O821        O  0.79470785  0.16895018  0.48133083    -0.72300
O822        O  0.73705079  0.21010659  0.48181923    -0.72300
O823        O  0.78782400  0.19062867  0.52214644    -0.72300
O824        O  0.74604285  0.18845456  0.44102094    -0.72300
Ni825      Ni  0.64468383  0.18276915  0.49174277     1.25400
Ni826      Ni  0.77062115  0.18978543  0.48125643     1.25400
C827        C  0.68084925  0.18477235  0.43243879     0.89900
C828        C  0.73653963  0.18760323  0.54044979     0.89900
C829        C  0.66860048  0.21341275  0.48662512     0.89900
C830        C  0.74474992  0.15905969  0.48601659     0.90100
O831        O  0.93594210  0.06375296  0.44959503    -0.72200
O832        O  0.89626336  0.06178551  0.53155207    -0.72300
O833        O  0.94744464  0.04244469  0.49076980    -0.72300
O834        O  0.88692679  0.08307986  0.49039011    -0.72400
O835        O  0.76944046  0.07628614  0.48114278    -0.72300
O836        O  0.83051143  0.03531766  0.48146326    -0.72300
O837        O  0.77925449  0.05480532  0.52196634    -0.72300
O838        O  0.81855136  0.05678959  0.44066591    -0.72300
Ni839      Ni  0.92087327  0.06299397  0.49093679     1.25400
Ni840      Ni  0.79524106  0.05552892  0.48100473     1.25400
C841        C  0.88315564  0.06067286  0.43180261     0.89900
C842        C  0.83072750  0.05811595  0.54003967     0.89900
C843        C  0.89936478  0.03225344  0.48597599     0.89900
C844        C  0.81872016  0.08635260  0.48560872     0.90100
O845        O  0.62153445  0.06491121  0.76975524    -0.72200
O846        O  0.66368873  0.06282236  0.68795522    -0.72300
O847        O  0.61119492  0.04356311  0.72834997    -0.72300
O848        O  0.67193211  0.08420391  0.72932736    -0.72400
O849        O  0.78906986  0.07738420  0.73906288    -0.72300
O850        O  0.72781700  0.03642760  0.73812553    -0.72300
O851        O  0.78036922  0.05583430  0.69802828    -0.72300
O852        O  0.73861309  0.05793117  0.77915499    -0.72300
Ni853      Ni  0.63787595  0.06411250  0.72847013     1.25400
Ni854      Ni  0.76315518  0.05663116  0.73891637     1.25400
C855        C  0.67371295  0.06179881  0.78776212     0.89900
C856        C  0.72937996  0.05907007  0.67973874     0.89900
C857        C  0.65910732  0.03336690  0.73325348     0.89900
C858        C  0.74001689  0.08746498  0.73445508     0.90100
O859        O  0.94092364  0.18210190  0.77086429    -0.72200
O860        O  0.90211443  0.18407704  0.68884240    -0.72300
O861        O  0.95482104  0.20329244  0.72954518    -0.72300
O862        O  0.89035804  0.16288355  0.73014246    -0.72400
O863        O  0.77349049  0.17014822  0.73920294    -0.72300
O864        O  0.83851696  0.21088162  0.73864608    -0.72300
O865        O  0.78571843  0.19151872  0.69823731    -0.72300
O866        O  0.82416195  0.18953555  0.77959830    -0.72300
Ni867      Ni  0.92626279  0.18284190  0.72949797     1.25400
Ni868      Ni  0.80130118  0.19080680  0.73922156     1.25400
C869        C  0.88830602  0.18542091  0.78856975     0.89900
C870        C  0.83703540  0.18799737  0.68024856     0.89900
C871        C  0.90767507  0.21367856  0.73416900     0.89900
C872        C  0.82180374  0.15988082  0.73486449     0.90100
O873        O  0.94048324  0.56461525  0.94772344    -0.72200
O874        O  0.89871115  0.56249900  0.02951641    -0.72300
O875        O  0.95293681  0.54336031  0.98899610    -0.72300
O876        O  0.88839079  0.58376364  0.98827331    -0.72400
O877        O  0.77188816  0.57650299  0.97851865    -0.72300
O878        O  0.83698543  0.53577604  0.97922354    -0.72300
O879        O  0.78267638  0.55506758  0.01944293    -0.72300
O880        O  0.82407613  0.55718030  0.93831057    -0.72300
Ni881      Ni  0.92432297  0.56380743  0.98900487     1.25400
Ni882      Ni  0.79974653  0.55584714  0.97855090     1.25400
C883        C  0.88851782  0.56131823  0.92971127     0.89900
C884        C  0.83336102  0.55854628  0.03773270     0.89900
C885        C  0.90597906  0.53297804  0.98406651     0.89900
C886        C  0.82002584  0.58676836  0.98315320     0.90100
O887        O  0.62157705  0.68187661  0.94685562    -0.72200
O888        O  0.66190377  0.68384342  0.02880029    -0.72300
O889        O  0.61061948  0.70318776  0.98829543    -0.72300
O890        O  0.67074190  0.66251074  0.98738454    -0.72400
O891        O  0.78821229  0.66926406  0.97809583    -0.72300
O892        O  0.72755765  0.71026093  0.97893689    -0.72300
O893        O  0.77890353  0.69077575  0.01915606    -0.72300
O894        O  0.73898281  0.68878542  0.93788635    -0.72300
Ni895      Ni  0.63698474  0.68262185  0.98819402     1.25400
Ni896      Ni  0.76261221  0.69003435  0.97820990     1.25400
C897        C  0.67421746  0.68496989  0.92904408     0.89900
C898        C  0.72749534  0.68752465  0.03725459     0.89900
C899        C  0.65877733  0.71335884  0.98356869     0.89900
C900        C  0.73890756  0.65921121  0.98252194     0.90100
O901        O  0.73327658  0.53563454  0.23591864    -0.72200
O902        O  0.79185949  0.57673949  0.23642072    -0.72300
O903        O  0.74374505  0.55721176  0.27679796    -0.72300
O904        O  0.78351156  0.55513949  0.19551977    -0.72400
O905        O  0.66613826  0.56182331  0.18587958    -0.72300
O906        O  0.62597150  0.56387114  0.26782389    -0.72300
O907        O  0.67401862  0.58324122  0.22713237    -0.72300
O908        O  0.61595898  0.54245980  0.22655541    -0.72300
Ni909      Ni  0.76731255  0.55592557  0.23647113     1.25400
Ni910      Ni  0.64128231  0.56307083  0.22648599     1.25400
C911        C  0.66463542  0.53239643  0.23135453     0.89900
C912        C  0.74201997  0.58668167  0.23195190     0.89900
C913        C  0.67882703  0.56092649  0.28563747     0.89900
C914        C  0.73189856  0.55826625  0.17742190     0.90100
O915        O  0.93709907  0.68173019  0.26686209    -0.72200
O916        O  0.89507302  0.68381777  0.18508573    -0.72300
O917        O  0.94801314  0.70305769  0.22568781    -0.72300
O918        O  0.88630466  0.66249216  0.22623750    -0.72400
O919        O  0.76931043  0.66942208  0.23603569    -0.72300
O920        O  0.83155832  0.71031355  0.23551882    -0.72300
O921        O  0.77854919  0.69092316  0.19520787    -0.72300
O922        O  0.82019165  0.68883220  0.27632463    -0.72300
Ni923      Ni  0.92083298  0.68253925  0.22558700     1.25400
Ni924      Ni  0.79572174  0.69014640  0.23609448     1.25400
C925        C  0.88493160  0.68486435  0.28489577     0.89900
C926        C  0.82942901  0.68759075  0.17689685     0.89900
C927        C  0.90035489  0.71330153  0.23070184     0.89900
C928        C  0.81816302  0.65929839  0.23135076     0.90100
O929        O  0.56528041  0.93235873  0.69872395    -0.72200
O930        O  0.02339012  0.93442806  0.78053565    -0.72300
O931        O  0.01575263  0.91303659  0.73920199    -0.72300
O932        O  0.57505609  0.95375454  0.74007969    -0.72400
O933        O  0.95815362  0.96072832  0.73036528    -0.72300
O934        O  0.89833722  0.91968777  0.72951853    -0.72300
O935        O  0.90642759  0.94125213  0.77052610    -0.72300
O936        O  0.94793473  0.93917930  0.68937641    -0.72300
Ni937      Ni  0.54909607  0.93316967  0.74001150     1.25400
Ni938      Ni  0.92351759  0.94047502  0.72962682     1.25400
C939        C  0.01287222  0.93535193  0.68074251     0.89900
C940        C  0.95755840  0.93805892  0.78878580     0.89900
C941        C  0.94777965  0.90967947  0.73409733     0.89900
C942        C  0.52677954  0.96388356  0.73518760     0.90100
O943        O  0.75225066  0.81463741  0.69718865    -0.72200
O944        O  0.79214500  0.81260594  0.77913433    -0.72300
O945        O  0.80205104  0.83391042  0.73797865    -0.72300
O946        O  0.74020428  0.79335145  0.73837145    -0.72400
O947        O  0.85687410  0.78607325  0.72900308    -0.72300
O948        O  0.91927979  0.82696335  0.72867283    -0.72300
O949        O  0.90889188  0.80547547  0.76948137    -0.72300
O950        O  0.86938900  0.80752490  0.68820345    -0.72300
Ni951      Ni  0.76744746  0.81386525  0.73852852     1.25400
Ni952      Ni  0.89279991  0.80623780  0.72853086     1.25400
C953        C  0.80483862  0.81146186  0.67936854     0.89900
C954        C  0.85754714  0.80881798  0.78758646     0.89900
C955        C  0.87035525  0.83709571  0.73317878     0.89900
C956        C  0.78794634  0.78309773  0.73356602     0.90100
O957        O  0.74784062  0.93179788  0.01837080    -0.72200
O958        O  0.78937236  0.93397949  0.93656689    -0.72300
O959        O  0.79892645  0.91262682  0.97764970    -0.72300
O960        O  0.73615889  0.95313510  0.97726501    -0.72400
O961        O  0.85247295  0.96050021  0.98703115    -0.72300
O962        O  0.91579344  0.91966686  0.98736533    -0.72300
O963        O  0.90575937  0.94119674  0.94661969    -0.72300
O964        O  0.86462305  0.93900460  0.02775927    -0.72300
Ni965      Ni  0.76387135  0.93264340  0.97708587     1.25400
Ni966      Ni  0.88883970  0.94036754  0.98751521     1.25400
C967        C  0.79999870  0.93498860  0.03637065     0.89900
C968        C  0.85486026  0.93783407  0.92833844     0.89900
C969        C  0.86719202  0.90949608  0.98267463     0.89900
C970        C  0.78357227  0.96342311  0.98227846     0.90100
O971        O  0.56343678  0.81429477  0.01785539    -0.72200
O972        O  0.02319687  0.81234514  0.93590587    -0.72300
O973        O  0.01443070  0.83366633  0.97734247    -0.72300
O974        O  0.57433858  0.79298079  0.97640227    -0.72400
O975        O  0.95735222  0.78592889  0.98573080    -0.72300
O976        O  0.89691729  0.82693570  0.98661759    -0.72300
O977        O  0.90614457  0.80543772  0.94552180    -0.72300
O978        O  0.94599626  0.80740324  0.02680613    -0.72300
Ni979      Ni  0.54807928  0.81355156  0.97651522     1.25400
Ni980      Ni  0.92240304  0.80616228  0.98647486     1.25400
C981        C  0.51074168  0.81122690  0.03565936     0.89900
C982        C  0.95758799  0.80868683  0.92743580     0.89900
C983        C  0.94629595  0.83697812  0.98223270     0.89900
C984        C  0.52612165  0.78281829  0.98110769     0.90100
O985        O  0.87665769  0.56455224  0.76780843    -0.72200
O986        O  0.91726849  0.56236343  0.68589916    -0.72300
O987        O  0.86728933  0.54305143  0.72668637    -0.72300
O988        O  0.92450755  0.58388073  0.72699740    -0.72400
O989        O  0.54242655  0.57749214  0.73643312    -0.72300
O990        O  0.98470363  0.53634085  0.73618308    -0.72300
O991        O  0.53473201  0.55579933  0.69568428    -0.72300
O992        O  0.99451735  0.55800352  0.77691666    -0.72300
Ni993      Ni  0.89218878  0.56368192  0.72648083     1.25400
Ni994      Ni  0.01831251  0.55665939  0.73661605     1.25400
C995        C  0.92947901  0.56167864  0.78568471     0.89900
C996        C  0.98312311  0.55882553  0.67752004     0.89900
C997        C  0.91615894  0.53303756  0.73158052     0.89900
C998        C  0.49240548  0.58738549  0.73186211     0.90100
O999        O  0.68690325  0.68243228  0.76711261    -0.72200
O1000       O  0.64644798  0.68439927  0.68521491    -0.72300
O1001       O  0.69890621  0.70368488  0.72583881    -0.72300
O1002       O  0.63659709  0.66315813  0.72647337    -0.72400
O1003       O  0.51951828  0.67016913  0.73589101    -0.72300
O1004       O  0.58238117  0.71102532  0.73529489    -0.72300
O1005       O  0.52984258  0.69159057  0.69495610    -0.72300
O1006       O  0.56992643  0.68961594  0.77620498    -0.72300
Ni1007     Ni  0.67142831  0.68318252  0.72579367     1.25400
Ni1008     Ni  0.54623426  0.69087886  0.73589719     1.25400
C1009       C  0.63443902  0.68561747  0.78497862     0.89900
C1010       C  0.58099595  0.68818056  0.67681461     0.89900
C1011       C  0.65131129  0.71396503  0.73065259     0.89900
C1012       C  0.56830913  0.66001111  0.73139656     0.90100
O1013       O  0.69080914  0.56406059  0.44759809    -0.72200
O1014       O  0.64977513  0.56218504  0.52946346    -0.72300
O1015       O  0.70332418  0.54290460  0.48904471    -0.72300
O1016       O  0.63940477  0.58334370  0.48803871    -0.72400
O1017       O  0.52268853  0.57613341  0.47853236    -0.72300
O1018       O  0.58717310  0.53536621  0.47950104    -0.72300
O1019       O  0.53353842  0.55479522  0.51962911    -0.72300
O1020       O  0.57419081  0.55667963  0.43841933    -0.72300
Ni1021     Ni  0.67502795  0.56336840  0.48890470     1.25400
Ni1022     Ni  0.55022917  0.55545970  0.47870554     1.25400
C1023       C  0.63862477  0.56075125  0.42969290     0.89900
C1024       C  0.58442341  0.55830676  0.53781045     0.89900
C1025       C  0.65617890  0.53253906  0.48425715     0.89900
C1026       C  0.57102599  0.58637896  0.48301918     0.90100
O1027       O  0.87376670  0.68147789  0.44679547    -0.72200
O1028       O  0.91456397  0.68367840  0.52868850    -0.72300
O1029       O  0.86325969  0.70291543  0.48801864    -0.72300
O1030       O  0.92295578  0.66221369  0.48749538    -0.72400
O1031       O  0.54043332  0.66889186  0.47801575    -0.72300
O1032       O  0.98022136  0.70991523  0.47849474    -0.72300
O1033       O  0.53158916  0.69052780  0.51886829    -0.72300
O1034       O  0.99117943  0.68831953  0.43764938    -0.72300
Ni1035     Ni  0.88941237  0.68234027  0.48811620     1.25400
Ni1036     Ni  0.51505636  0.68967275  0.47794211     1.25400
C1037       C  0.92633725  0.68449726  0.42890238     0.89900
C1038       C  0.98021902  0.68737166  0.53704792     0.89900
C1039       C  0.91150720  0.71305399  0.48316951     0.89900
C1040       C  0.49104083  0.65887162  0.48257288     0.90100
O1041       O  0.76196355  0.43206725  0.51915583    -0.72200
O1042       O  0.80249675  0.43395904  0.43725451    -0.72300
O1043       O  0.81338161  0.41282087  0.47867750    -0.72300
O1044       O  0.74891696  0.45322189  0.47771068    -0.72400
O1045       O  0.86502410  0.46082151  0.48714879    -0.72300
O1046       O  0.93005810  0.42009353  0.48808353    -0.72300
O1047       O  0.91869348  0.44141092  0.44698021    -0.72300
O1048       O  0.87852809  0.43951270  0.52823633    -0.72300
Ni1049     Ni  0.77748730  0.43277301  0.47783492     1.25400
Ni1050     Ni  0.90223917  0.44074868  0.48792339     1.25400
C1051       C  0.81422958  0.43538581  0.53701852     0.89900
C1052       C  0.86777093  0.43785409  0.42884640     0.89900
C1053       C  0.88182463  0.40982431  0.48364568     0.89900
C1054       C  0.79595727  0.46361245  0.48244717     0.90100
O1055       O  0.97080152  0.28629467  0.48843967    -0.72200
O1056       O  0.91165767  0.32736753  0.48890382    -0.72300
O1057       O  0.91963566  0.30570537  0.44808650    -0.72300
O1058       O  0.96071784  0.30790837  0.52924661    -0.72400
O1059       O  0.57824702  0.31462130  0.51996112    -0.72300
O1060       O  0.03675249  0.31243273  0.43811023    -0.72300
O1061       O  0.02923790  0.33392282  0.47928321    -0.72300
O1062       O  0.58787396  0.29316825  0.47876058    -0.72300
Ni1063     Ni  0.93649806  0.30656620  0.48898856     1.25400
Ni1064     Ni  0.56225672  0.31376512  0.47865578     1.25400
C1065       C  0.53939916  0.28308598  0.48370203     0.89900
C1066       C  0.96127252  0.33733324  0.48427041     0.89900
C1067       C  0.97094549  0.30879372  0.42983714     0.89900
C1068       C  0.02574552  0.31164873  0.53791642     0.90100
O1069       O  0.57301109  0.43130175  0.19847060    -0.72200
O1070       O  0.03344221  0.43338795  0.28047053    -0.72300
O1071       O  0.02518436  0.41193466  0.23925825    -0.72300
O1072       O  0.58338704  0.45271314  0.23970444    -0.72400
O1073       O  0.96602600  0.45955000  0.23045591    -0.72300
O1074       O  0.90730100  0.41844805  0.23009404    -0.72300
O1075       O  0.91602675  0.44008224  0.27093954    -0.72300
O1076       O  0.95518604  0.43796798  0.18962382    -0.72300
Ni1077     Ni  0.55799185  0.43210608  0.23983234     1.25400
Ni1078     Ni  0.93191608  0.43926266  0.22997473     1.25400
C1079       C  0.52007672  0.43428140  0.18071193     0.89900
C1080       C  0.96779544  0.43699142  0.28899233     0.89900
C1081       C  0.95712992  0.40849885  0.23453246     0.89900
C1082       C  0.53470907  0.46278112  0.23494584     0.90100
O1083       O  0.75851184  0.31369614  0.20062567    -0.72200
O1084       O  0.80153892  0.31164893  0.28231969    -0.72300
O1085       O  0.81077242  0.33288723  0.24102633    -0.72300
O1086       O  0.74710466  0.29243412  0.24193313    -0.72400
O1087       O  0.86306169  0.28493975  0.23190702    -0.72300
O1088       O  0.92729237  0.32572008  0.23103063    -0.72300
O1089       O  0.91757618  0.30430282  0.27200996    -0.72300
O1090       O  0.87493515  0.30635392  0.19095935    -0.72300
Ni1091     Ni  0.77528717  0.31290537  0.24186618     1.25400
Ni1092     Ni  0.89987567  0.30504252  0.23114867     1.25400
C1093       C  0.81031742  0.31046347  0.18250221     0.89900
C1094       C  0.86714307  0.30779021  0.29040089     0.89900
C1095       C  0.87899088  0.33594591  0.23574780     0.89900
C1096       C  0.79417899  0.28208847  0.23686788     0.90100
O1097       O  0.68353603  0.06417466  0.94972908    -0.72200
O1098       O  0.64204867  0.06196275  0.03152743    -0.72300
O1099       O  0.69459273  0.04277245  0.99074606    -0.72300
O1100       O  0.63314386  0.08335423  0.99053834    -0.72400
O1101       O  0.51603231  0.07647602  0.98082032    -0.72300
O1102       O  0.57803642  0.03556276  0.98097635    -0.72300
O1103       O  0.52541601  0.05490218  0.02148200    -0.72300
O1104       O  0.56651977  0.05712494  0.94032956    -0.72300
Ni1105     Ni  0.66754360  0.06329758  0.99101185     1.25400
Ni1106     Ni  0.54231555  0.05574294  0.98057984     1.25400
C1107       C  0.63123164  0.06109082  0.93172335     0.89900
C1108       C  0.57641993  0.05820833  0.03976021     0.89900
C1109       C  0.64685070  0.03254912  0.98570331     0.89900
C1110       C  0.56497629  0.08657676  0.98554550     0.90100
O1111       O  0.98113843  0.21028215  0.98255395    -0.72200
O1112       O  0.53944517  0.16916198  0.98176563    -0.72300
O1113       O  0.99134363  0.18876689  0.94154154    -0.72300
O1114       O  0.53137047  0.19070641  0.02280409    -0.72400
O1115       O  0.91398079  0.18404544  0.03246478    -0.72300
O1116       O  0.87355753  0.18212178  0.95052155    -0.72300
O1117       O  0.92159584  0.16267936  0.99107866    -0.72300
O1118       O  0.86380018  0.20347498  0.99192094    -0.72300
Ni1119     Ni  0.51503943  0.18998345  0.98186026     1.25400
Ni1120     Ni  0.88899348  0.18285802  0.99186025     1.25400
C1121       C  0.91253524  0.21353184  0.98717328     0.89900
C1122       C  0.48954492  0.15922645  0.98617887     0.89900
C1123       C  0.92638855  0.18507870  0.93270538     0.89900
C1124       C  0.47977742  0.18758393  0.04091011     0.90100
O1125       O  0.97474842  0.03586742  0.23770074    -0.72200
O1126       O  0.53640645  0.07680072  0.23873986    -0.72300
O1127       O  0.98669042  0.05728777  0.27884757    -0.72300
O1128       O  0.02657271  0.05533854  0.19757303    -0.72400
O1129       O  0.90973660  0.06239090  0.18795172    -0.72300
O1130       O  0.86946796  0.06433078  0.26990270    -0.72300
O1131       O  0.91911527  0.08368231  0.22945883    -0.72300
O1132       O  0.85797792  0.04306619  0.22837995    -0.72300
Ni1133     Ni  0.01029653  0.05605682  0.23852160     1.25400
Ni1134     Ni  0.88485501  0.06360568  0.22856240     1.25400
C1135       C  0.90589987  0.03284212  0.23304503     0.89900
C1136       C  0.98734066  0.08690854  0.23438175     0.89900
C1137       C  0.92203904  0.06117214  0.28770298     0.89900
C1138       C  0.97521734  0.05863887  0.17948415     0.90100
O1139       O  0.68957329  0.18150821  0.27044827    -0.72200
O1140       O  0.64742370  0.18363624  0.18868734    -0.72300
O1141       O  0.70165148  0.20278178  0.22921801    -0.72300
O1142       O  0.63747953  0.16235424  0.22988563    -0.72400
O1143       O  0.52094136  0.16957017  0.23970713    -0.72300
O1144       O  0.58568243  0.21032154  0.23909317    -0.72300
O1145       O  0.53137473  0.19103111  0.19884428    -0.72300
O1146       O  0.57312368  0.18888931  0.27994903    -0.72300
Ni1147     Ni  0.67322424  0.18232384  0.22917976     1.25400
Ni1148     Ni  0.54861853  0.19023592  0.23972492     1.25400
C1149       C  0.63767239  0.18478871  0.28849956     0.89900
C1150       C  0.58198860  0.18756077  0.18051873     0.89900
C1151       C  0.65464336  0.21314530  0.23423721     0.89900
C1152       C  0.56914009  0.15932409  0.23499469     0.90100
C1153       C  0.54707142  0.14401672  0.23551469    -0.09900
C1154       C  0.53391054  0.13088833  0.23566114     0.07700
C1155       C  0.52102016  0.11542282  0.23550507     0.09600
C1156       C  0.00832874  0.10227639  0.23511477    -0.17200
C1157       C  0.49736083  0.18787965  0.07130212    -0.16300
C1158       C  0.51744759  0.18800373  0.09628487     0.07700
C1159       C  0.54330333  0.18800721  0.12524943     0.09600
C1160       C  0.56368546  0.18788176  0.15019479    -0.17200
C1161       C  0.99268288  0.05827416  0.14908353    -0.16300
C1162       C  0.51258211  0.05804186  0.12408032     0.07700
C1163       C  0.53817226  0.05789519  0.09508016     0.09600
C1164       C  0.55833383  0.05792543  0.07010611    -0.17200
C1165       C  0.50922608  0.14379818  0.98552542    -0.16300
C1166       C  0.52065661  0.13061039  0.98517983     0.07700
C1167       C  0.53202000  0.11510573  0.98503452     0.09600
C1168       C  0.54400884  0.10193751  0.98514156    -0.17200
C1169       C  0.76803737  0.26700807  0.23645225    -0.16300
C1170       C  0.74123155  0.25471656  0.23593122     0.07700
C1171       C  0.70780062  0.24050094  0.23524543     0.09600
C1172       C  0.68093439  0.22821489  0.23470479    -0.17200
C1173       C  0.90073206  0.35126451  0.23495991    -0.16300
C1174       C  0.91334688  0.36440958  0.23447361     0.07700
C1175       C  0.92536011  0.37989855  0.23416664     0.09600
C1176       C  0.93719664  0.39307578  0.23417189    -0.17200
C1177       C  0.88588319  0.30760983  0.32069303    -0.16300
C1178       C  0.90656811  0.30768301  0.34560464     0.07700
C1179       C  0.93272749  0.30796094  0.37452799     0.09600
C1180       C  0.95305968  0.30830551  0.39947639    -0.17200
C1181       C  0.88556599  0.43801342  0.39846928    -0.16300
C1182       C  0.90552825  0.43795866  0.37346925     0.07700
C1183       C  0.93091083  0.43772803  0.34444168     0.09600
C1184       C  0.95061976  0.43743059  0.31941632    -0.17200
C1185       C  0.94119652  0.35274632  0.48473946    -0.16300
C1186       C  0.92916004  0.36591520  0.48487369     0.07700
C1187       C  0.91684226  0.38139346  0.48472757     0.09600
C1188       C  0.90392891  0.39452707  0.48435608    -0.17200
C1189       C  0.68236050  0.51746173  0.48396204    -0.16300
C1190       C  0.70920511  0.50517275  0.48359076     0.07700
C1191       C  0.74268647  0.49096058  0.48310903     0.09600
C1192       C  0.76959999  0.47867757  0.48274036    -0.17200
C1193       C  0.54909823  0.60169192  0.48232247    -0.16300
C1194       C  0.53620192  0.61482981  0.48198849     0.07700
C1195       C  0.52374891  0.63030897  0.48189974     0.09600
C1196       C  0.51149147  0.64347299  0.48207699    -0.17200
C1197       C  0.49784874  0.68783243  0.56743053    -0.16300
C1198       C  0.51778307  0.68813162  0.59242756     0.07700
C1199       C  0.54328981  0.68834764  0.62143775     0.09600
C1200       C  0.56326753  0.68837836  0.64643443    -0.17200
C1201       C  0.56651525  0.55809136  0.56817361    -0.16300
C1202       C  0.54638973  0.55806285  0.59315172     0.07700
C1203       C  0.52073649  0.55818572  0.62214319     0.09600
C1204       C  0.50073055  0.55841269  0.64713375    -0.17200
C1205       C  0.51191268  0.60282370  0.73228136    -0.16300
C1206       C  0.52333925  0.61601167  0.73241447     0.07700
C1207       C  0.53483922  0.63151139  0.73230881     0.09600
C1208       C  0.54703239  0.64467028  0.73200115    -0.17200
C1209       C  0.67215992  0.01742158  0.98505832    -0.16300
C1210       C  0.69843188  0.00509056  0.98437327     0.07700
C1211       C  0.73135416  0.99083678  0.98352397     0.09600
C1212       C  0.75781040  0.97852104  0.98286449    -0.17200
C1213       C  0.88869540  0.89416041  0.98315201    -0.16300
C1214       C  0.90132797  0.88101361  0.98331606     0.07700
C1215       C  0.91358404  0.86553146  0.98321924     0.09600
C1216       C  0.92578370  0.85236824  0.98289329    -0.17200
C1217       C  0.76252168  0.76797806  0.73301953    -0.16300
C1218       C  0.73619942  0.75565108  0.73242715     0.07700
C1219       C  0.70328528  0.74139633  0.73169208     0.09600
C1220       C  0.67690107  0.72907425  0.73112918    -0.17200
C1221       C  0.94005387  0.80840808  0.89703790    -0.16300
C1222       C  0.92018911  0.80831155  0.87202747     0.07700
C1223       C  0.89479157  0.80834459  0.84300146     0.09600
C1224       C  0.87497057  0.80849329  0.81798834    -0.17200
C1225       C  0.93941393  0.93836090  0.81912830    -0.16300
C1226       C  0.91908754  0.93845308  0.84408178     0.07700
C1227       C  0.89317297  0.93839330  0.87303764     0.09600
C1228       C  0.87289191  0.93820969  0.89799302    -0.17200
C1229       C  0.89153460  0.85244899  0.73278072    -0.16300
C1230       C  0.90383246  0.86560832  0.73272253     0.07700
C1231       C  0.91567496  0.88110234  0.73295482     0.09600
C1232       C  0.92755580  0.89427604  0.73337633    -0.17200
C1233       C  0.91331036  0.68361843  0.39823417    -0.16300
C1234       C  0.90785261  0.68330212  0.37216617     0.07700
C1235       C  0.90379337  0.68341413  0.34157457     0.09600
C1236       C  0.89822457  0.68389191  0.31552437    -0.17200
C1237       C  0.65155460  0.56164388  0.39903656    -0.16300
C1238       C  0.65690029  0.56205955  0.37297817     0.07700
C1239       C  0.66075401  0.56211710  0.34238711     0.09600
C1240       C  0.66604210  0.56178189  0.31631785    -0.17200
C1241       C  0.64060035  0.51719151  0.23194397    -0.16300
C1242       C  0.61545974  0.50477223  0.23266218     0.07700
C1243       C  0.58394422  0.49040071  0.23359751     0.09600
C1244       C  0.55878393  0.47798318  0.23432681    -0.17200
C1245       C  0.79712333  0.64394460  0.23198010    -0.16300
C1246       C  0.78500559  0.63078315  0.23233892     0.07700
C1247       C  0.77344799  0.61528532  0.23250980     0.09600
C1248       C  0.76185463  0.60210301  0.23240433    -0.17200
C1249       C  0.64712957  0.68464950  0.81564180    -0.16300
C1250       C  0.65232665  0.68413550  0.84169759     0.07700
C1251       C  0.65608101  0.68394822  0.87228822     0.09600
C1252       C  0.66135727  0.68418600  0.89836132    -0.17200
C1253       C  0.63401594  0.72852656  0.98317121    -0.16300
C1254       C  0.60839459  0.74091454  0.98266053     0.07700
C1255       C  0.57639388  0.75525485  0.98199488     0.09600
C1256       C  0.55080602  0.76764565  0.98149140    -0.17200
C1257       C  0.74506270  0.68783559  0.06764782    -0.16300
C1258       C  0.76510764  0.68797779  0.09263566     0.07700
C1259       C  0.79089265  0.68800487  0.12161016     0.09600
C1260       C  0.81120692  0.68789735  0.14656451    -0.17200
C1261       C  0.90169156  0.56229966  0.89907572    -0.16300
C1262       C  0.90716577  0.56277440  0.87302183     0.07700
C1263       C  0.91112694  0.56287719  0.84242777     0.09600
C1264       C  0.91651457  0.56255508  0.81635731    -0.17200
C1265       C  0.74942983  0.55797932  0.14702524    -0.16300
C1266       C  0.76940119  0.55790714  0.12202788     0.07700
C1267       C  0.79506396  0.55798877  0.09303879     0.09600
C1268       C  0.81526249  0.55818152  0.06807287    -0.17200
C1269       C  0.79789585  0.60206994  0.98246402    -0.16300
C1270       C  0.78478587  0.61519881  0.98206765     0.07700
C1271       C  0.77206047  0.63066881  0.98187780     0.09600
C1272       C  0.75957973  0.64382445  0.98199909    -0.17200
C1273       C  0.90041263  0.18449141  0.81927290    -0.16300
C1274       C  0.90516948  0.18404674  0.84534681     0.07700
C1275       C  0.90851393  0.18395595  0.87594638     0.09600
C1276       C  0.91357549  0.18426158  0.90202358    -0.17200
C1277       C  0.66016873  0.06261597  0.81840328    -0.16300
C1278       C  0.65434770  0.06286380  0.84446252     0.07700
C1279       C  0.65000333  0.06266623  0.87504703     0.09600
C1280       C  0.64436214  0.06212258  0.90109048    -0.17200
C1281       C  0.63417127  0.01821154  0.73354991    -0.16300
C1282       C  0.60854389  0.00582397  0.73393317     0.07700
C1283       C  0.57665413  0.99147392  0.73444440     0.09600
C1284       C  0.55122696  0.97907020  0.73484819    -0.17200
C1285       C  0.76086573  0.10284070  0.73513269    -0.16300
C1286       C  0.77350820  0.11598941  0.73546450     0.07700
C1287       C  0.78640692  0.13145428  0.73555708     0.09600
C1288       C  0.79962159  0.14458036  0.73537777    -0.17200
C1289       C  0.90925831  0.06197464  0.31838775    -0.16300
C1290       C  0.90412114  0.06224369  0.34446369     0.07700
C1291       C  0.90058559  0.06209925  0.37505832     0.09600
C1292       C  0.89559654  0.06161739  0.40112242    -0.17200
C1293       C  0.81324149  0.05794617  0.57044117    -0.16300
C1294       C  0.79329338  0.05801962  0.59544096     0.07700
C1295       C  0.76764718  0.05828782  0.62443079     0.09600
C1296       C  0.74746112  0.05861491  0.64939586    -0.17200
C1297       C  0.65110122  0.18385788  0.31912483    -0.16300
C1298       C  0.65694445  0.18346039  0.34517183     0.07700
C1299       C  0.66145171  0.18346092  0.37575551     0.09600
C1300       C  0.66733400  0.18385583  0.40180627    -0.17200
C1301       C  0.56358059  0.26789103  0.48421168    -0.16300
C1302       C  0.58868851  0.25546775  0.48479144     0.07700
C1303       C  0.62001735  0.24107841  0.48553117     0.09600
C1304       C  0.64491972  0.22863880  0.48611164    -0.17200
C1305       C  0.81990170  0.18824692  0.64981968    -0.16300
C1306       C  0.80019849  0.18830545  0.62479102     0.07700
C1307       C  0.77475487  0.18821417  0.59577145     0.09600
C1308       C  0.75465030  0.18800659  0.57079213    -0.17200
C1309       C  0.79808589  0.10173036  0.48516244    -0.16300
C1310       C  0.78637978  0.11490815  0.48502485     0.07700
C1311       C  0.77533632  0.13042153  0.48513386     0.09600
C1312       C  0.76415979  0.14361770  0.48543759    -0.17200
C1313       C  0.78173186  0.31241344  0.06921466    -0.16300
C1314       C  0.78706727  0.31253555  0.09529067     0.07700
C1315       C  0.79114178  0.31218336  0.12587185     0.09600
C1316       C  0.79681773  0.31153831  0.15190272    -0.17200
C1317       C  0.88862047  0.22874445  0.98672217    -0.16300
C1318       C  0.86360743  0.24117535  0.98613992     0.07700
C1319       C  0.83227220  0.25556399  0.98536408     0.09600
C1320       C  0.80728888  0.26799672  0.98474819    -0.17200
C1321       C  0.54770493  0.43451689  0.06731991    -0.16300
C1322       C  0.54213401  0.43384662  0.09335190     0.07700
C1323       C  0.53813735  0.43346256  0.12393415     0.09600
C1324       C  0.53281375  0.43356671  0.15001083    -0.17200
C1325       C  0.93232901  0.51791377  0.98373836    -0.16300
C1326       C  0.95915005  0.50562331  0.98338606     0.07700
C1327       C  0.99244362  0.49139485  0.98294802     0.09600
C1328       C  0.51908306  0.47908877  0.98260736    -0.17200
C1329       C  0.65078403  0.39477963  0.98421897    -0.16300
C1330       C  0.66326429  0.38163120  0.98472354     0.07700
C1331       C  0.67511543  0.36614013  0.98505586     0.09600
C1332       C  0.68681079  0.35295948  0.98506541    -0.17200
C1333       C  0.55332402  0.31190716  0.65129557    -0.16300
C1334       C  0.54828454  0.31245909  0.62523501     0.07700
C1335       C  0.54452578  0.31268790  0.59464146     0.09600
C1336       C  0.53906294  0.31246343  0.56857081    -0.17200
C1337       C  0.52108314  0.26754209  0.73604934    -0.16300
C1338       C  0.99428996  0.25524917  0.73560859     0.07700
C1339       C  0.96087265  0.24103171  0.73503698     0.09600
C1340       C  0.93400352  0.22874546  0.73458022    -0.17200
C1341       C  0.69991657  0.30864786  0.89977497    -0.16300
C1342       C  0.68036080  0.30838022  0.87473065     0.07700
C1343       C  0.65522892  0.30819001  0.84566924     0.09600
C1344       C  0.63552618  0.30816986  0.82063839    -0.17200
C1345       C  0.78712713  0.43390509  0.65040653    -0.16300
C1346       C  0.79253754  0.43366872  0.62433545     0.07700
C1347       C  0.79637189  0.43387693  0.59374320     0.09600
C1348       C  0.80157756  0.43440990  0.56768699    -0.17200
C1349       C  0.81148581  0.47853787  0.73456163    -0.16300
C1350       C  0.83642273  0.49097282  0.73384448     0.07700
C1351       C  0.86761884  0.50537116  0.73292925     0.09600
C1352       C  0.89246700  0.51781305  0.73221255    -0.17200
C1353       C  0.63591787  0.43850649  0.89846564    -0.16300
C1354       C  0.65639834  0.43850234  0.87352975     0.07700
C1355       C  0.68231111  0.43831611  0.84457213     0.09600
C1356       C  0.70243870  0.43803543  0.81959729    -0.17200
C1357       C  0.69075422  0.39358492  0.73446583    -0.16300
C1358       C  0.67895710  0.38040649  0.73437651     0.07700
C1359       C  0.66690021  0.36491837  0.73454650     0.09600
C1360       C  0.65419630  0.35177564  0.73490480    -0.17200
C1361       C  0.52349129  0.81208017  0.06634422    -0.16300
C1362       C  0.52875889  0.81242473  0.09241480     0.07700
C1363       C  0.53264112  0.81237531  0.12300726     0.09600
C1364       C  0.53808427  0.81194857  0.14906286    -0.17200
C1365       C  0.92571470  0.72842496  0.23121030    -0.16300
C1366       C  0.95185840  0.74076677  0.23179800     0.07700
C1367       C  0.48446848  0.75504791  0.23256421     0.09600
C1368       C  0.51054682  0.76739483  0.23318529    -0.17200
C1369       C  0.78678098  0.93405845  0.06700699    -0.16300
C1370       C  0.78120895  0.93366777  0.09306157     0.07700
C1371       C  0.77711921  0.93367330  0.12365196     0.09600
C1372       C  0.77165647  0.93405962  0.14971527    -0.17200
C1373       C  0.79762071  0.97857466  0.23461111    -0.16300
C1374       C  0.82309195  0.99097501  0.23421185     0.07700
C1375       C  0.85508273  0.00531661  0.23369954     0.09600
C1376       C  0.88082058  0.01769541  0.23331913    -0.17200
C1377       C  0.63825569  0.85194061  0.23296271    -0.16300
C1378       C  0.65041279  0.86510422  0.23278233     0.07700
C1379       C  0.66216941  0.88060050  0.23284507     0.09600
C1380       C  0.67403024  0.89377523  0.23314219    -0.17200
C1381       C  0.77741760  0.81199024  0.56596680    -0.16300
C1382       C  0.78295107  0.81247294  0.59202255     0.07700
C1383       C  0.78689384  0.81259770  0.62261590     0.09600
C1384       C  0.79216381  0.81230189  0.64868593    -0.17200
C1385       C  0.80377224  0.76735560  0.48121869    -0.16300
C1386       C  0.82943675  0.75497091  0.48165448     0.07700
C1387       C  0.86141026  0.74062806  0.48224082     0.09600
C1388       C  0.88693214  0.72823226  0.48272076    -0.17200
C1389       C  0.69047193  0.80789932  0.39696352    -0.16300
C1390       C  0.67013588  0.80775401  0.37201186     0.07700
C1391       C  0.64422470  0.80774361  0.34305509     0.09600
C1392       C  0.62395751  0.80787539  0.31809649    -0.17200
C1393       C  0.54038783  0.93392380  0.56737482    -0.16300
C1394       C  0.53528855  0.93367093  0.59345116     0.07700
C1395       C  0.53152054  0.93385041  0.62404600     0.09600
C1396       C  0.52609955  0.93436754  0.65010232    -0.17200
C1397       C  0.92433995  0.01710399  0.48535429    -0.16300
C1398       C  0.95040071  0.00475561  0.48465058     0.07700
C1399       C  0.98313755  0.99048578  0.48375883     0.09600
C1400       C  0.50947189  0.97816024  0.48306619    -0.17200
C1401       C  0.62192203  0.93767005  0.39797820    -0.16300
C1402       C  0.64164310  0.93782179  0.37295399     0.07700
C1403       C  0.66702110  0.93786311  0.34392619     0.09600
C1404       C  0.68695764  0.93777307  0.31892506    -0.17200
C1405       C  0.63984029  0.89376741  0.48324294    -0.16300
C1406       C  0.65250995  0.88062184  0.48331629     0.07700
C1407       C  0.66489098  0.86514392  0.48310804     0.09600
C1408       C  0.67725659  0.85198757  0.48270370    -0.17200
loop_ 
_geom_bond_atom_site_label_1 
_geom_bond_atom_site_label_2 
_geom_bond_distance 
_geom_bond_site_symmetry_2 
_ccdc_geom_bond_type 
O1           Ni9   1.925       .  S
O1           C11   1.282       .  A
O2           Ni9   1.926       .  S
O2           C12   1.282       .  A
O3           Ni9   1.908       .  S
O3           C13   1.277       .  A
O4           Ni9   1.910   1_655  S
O4           C14   1.277   1_655  A
O5          Ni10   1.926       .  S
O5           C14   1.282       .  A
O6          Ni10   1.925       .  S
O6           C13   1.282       .  A
O7          Ni10   1.910       .  S
O7           C12   1.277       .  A
O8          Ni10   1.908       .  S
O8           C11   1.277       .  A
Ni9         Ni10   2.394       .  S
C11         C689   1.434       .  S
C12         C697   1.435       .  S
C13         C701   1.433       .  S
C14         C696   1.435       .  S
O15         Ni23   1.925       .  S
O15          C25   1.282       .  A
O16         Ni23   1.926       .  S
O16          C26   1.282       .  A
O17         Ni23   1.908       .  S
O17          C27   1.277       .  A
O18         Ni23   1.910       .  S
O18          C28   1.278       .  A
O19         Ni24   1.926       .  S
O19          C28   1.282       .  A
O20         Ni24   1.925       .  S
O20          C27   1.282       .  A
O21         Ni24   1.910       .  S
O21          C26   1.277       .  A
O22         Ni24   1.909       .  S
O22          C25   1.277       .  A
Ni23        Ni24   2.394       .  S
C25         C677   1.434       .  S
C26         C685   1.435       .  S
C27         C704   1.433       .  S
C28         C681   1.436       .  S
O29         Ni37   1.925       .  S
O29          C39   1.282       .  A
O30         Ni37   1.926       .  S
O30          C40   1.282       .  A
O31         Ni37   1.908       .  S
O31          C41   1.277       .  A
O32         Ni37   1.910       .  S
O32          C42   1.278       .  A
O33         Ni38   1.926       .  S
O33          C42   1.282       .  A
O34         Ni38   1.925       .  S
O34          C41   1.282       .  A
O35         Ni38   1.910       .  S
O35          C40   1.278       .  A
O36         Ni38   1.909       .  S
O36          C39   1.277       .  A
Ni37        Ni38   2.394       .  S
C39         C668   1.434       .  S
C40         C700   1.435       .  S
C41         C676   1.433       .  S
C42         C669   1.436       .  S
O43         Ni51   1.925   1_655  S
O43          C53   1.282   1_655  A
O44         Ni51   1.926       .  S
O44          C54   1.282       .  A
O45         Ni51   1.908       .  S
O45          C55   1.277       .  A
O46         Ni51   1.910   1_655  S
O46          C56   1.277   1_655  A
O47         Ni52   1.926       .  S
O47          C56   1.282       .  A
O48         Ni52   1.925       .  S
O48          C55   1.282       .  A
O49         Ni52   1.910       .  S
O49          C54   1.277       .  A
O50         Ni52   1.908       .  S
O50          C53   1.277       .  A
Ni51        Ni52   2.394       .  S
C53         C660   1.434       .  S
C54         C688   1.435       .  S
C55         C673   1.433       .  S
C56         C664   1.435       .  S
O57         Ni65   1.926       .  S
O57          C67   1.282       .  A
O58         Ni65   1.926       .  S
O58          C68   1.282       .  A
O59         Ni65   1.909       .  S
O59          C69   1.277       .  A
O60         Ni65   1.910       .  S
O60          C70   1.277       .  A
O61         Ni66   1.926       .  S
O61          C70   1.282       .  A
O62         Ni66   1.925       .  S
O62          C69   1.282       .  A
O63         Ni66   1.910       .  S
O63          C68   1.277       .  A
O64         Ni66   1.908       .  S
O64          C67   1.277       .  A
Ni65        Ni66   2.394       .  S
C67         C641   1.434       .  S
C68         C652   1.435       .  S
C69         C653   1.433       .  S
C70         C645   1.435       .  S
O71         Ni79   1.925       .  S
O71          C81   1.282       .  A
O72         Ni79   1.926       .  S
O72          C82   1.282       .  A
O73         Ni79   1.908       .  S
O73          C83   1.277       .  A
O74         Ni79   1.910   1_655  S
O74          C84   1.278   1_655  A
O75         Ni80   1.926       .  S
O75          C84   1.282       .  A
O76         Ni80   1.925       .  S
O76          C83   1.282       .  A
O77         Ni80   1.910       .  S
O77          C82   1.278       .  A
O78         Ni80   1.909       .  S
O78          C81   1.277       .  A
Ni79        Ni80   2.394       .  S
C81         C629   1.434       .  S
C82         C640   1.435       .  S
C83         C656   1.433       .  S
C84         C633   1.436       .  S
O85         Ni93   1.925   1_554  S
O85          C95   1.282       .  A
O86         Ni93   1.926       .  S
O86          C96   1.282       .  A
O87         Ni93   1.908       .  S
O87          C97   1.277       .  A
O88         Ni93   1.910   1_655  S
O88          C98   1.278   1_655  A
O89         Ni94   1.926       .  S
O89          C98   1.282       .  A
O90         Ni94   1.925       .  S
O90          C97   1.282       .  A
O91         Ni94   1.910       .  S
O91          C96   1.278       .  A
O92         Ni94   1.909   1_554  S
O92          C95   1.277       .  A
Ni93        Ni94   2.394       .  S
C95         C617   1.434       .  S
C96         C649   1.435       .  S
C97         C625   1.433       .  S
C98         C624   1.436       .  S
O99        Ni107   1.925   1_554  S
O99         C109   1.282       .  A
O100       Ni107   1.926       .  S
O100        C110   1.282       .  A
O101       Ni107   1.908       .  S
O101        C111   1.277       .  A
O102       Ni107   1.910       .  S
O102        C112   1.277       .  A
O103       Ni108   1.926       .  S
O103        C112   1.282       .  A
O104       Ni108   1.924       .  S
O104        C111   1.282       .  A
O105       Ni108   1.910       .  S
O105        C110   1.277       .  A
O106       Ni108   1.908   1_554  S
O106        C109   1.277       .  A
Ni107      Ni108   2.394       .  S
C109        C609   1.434       .  S
C110        C637   1.435       .  S
C111        C628   1.433       .  S
C112        C616   1.435       .  S
O113       Ni121   1.925       .  S
O113        C123   1.282       .  A
O114       Ni121   1.926       .  S
O114        C124   1.282       .  A
O115       Ni121   1.910       .  S
O115        C125   1.277       .  A
O116       Ni121   1.908       .  S
O116        C126   1.277       .  A
O117       Ni122   1.924       .  S
O117        C126   1.282       .  A
O118       Ni122   1.925       .  S
O118        C125   1.282       .  A
O119       Ni122   1.910       .  S
O119        C124   1.278       .  A
O120       Ni122   1.909       .  S
O120        C123   1.277       .  A
Ni121      Ni122   2.394       .  S
C123        C596   1.434       .  S
C124        C604   1.435       .  S
C125        C600   1.435       .  S
C126        C608   1.433       .  S
O127       Ni135   1.925       .  S
O127        C137   1.282       .  A
O128       Ni135   1.926       .  S
O128        C138   1.282       .  A
O129       Ni135   1.910       .  S
O129        C139   1.277       .  A
O130       Ni135   1.908       .  S
O130        C140   1.277       .  A
O131       Ni136   1.925       .  S
O131        C140   1.282       .  A
O132       Ni136   1.926       .  S
O132        C139   1.282       .  A
O133       Ni136   1.910       .  S
O133        C138   1.278       .  A
O134       Ni136   1.909       .  S
O134        C137   1.277       .  A
Ni135      Ni136   2.394       .  S
C137        C588   1.434       .  S
C138        C589   1.435       .  S
C139        C693   1.435       .  S
C140        C605   1.433       .  S
O141       Ni149   1.926       .  S
O141        C151   1.282       .  A
O142       Ni149   1.926       .  S
O142        C152   1.282       .  A
O143       Ni149   1.910       .  S
O143        C153   1.278       .  A
O144       Ni149   1.909       .  S
O144        C154   1.277       .  A
O145       Ni150   1.925       .  S
O145        C154   1.282       .  A
O146       Ni150   1.926       .  S
O146        C153   1.282       .  A
O147       Ni150   1.910       .  S
O147        C152   1.277       .  A
O148       Ni150   1.908       .  S
O148        C151   1.277       .  A
Ni149      Ni150   2.394       .  S
C151        C573   1.434       .  S
C152        C592   1.435       .  S
C153        C577   1.436       .  S
C154        C581   1.434       .  S
O155       Ni163   1.925       .  S
O155        C165   1.282       .  A
O156       Ni163   1.926       .  S
O156        C166   1.282       .  A
O157       Ni163   1.910       .  S
O157        C167   1.278       .  A
O158       Ni163   1.909       .  S
O158        C168   1.277       .  A
O159       Ni164   1.925       .  S
O159        C168   1.282       .  A
O160       Ni164   1.926       .  S
O160        C167   1.282       .  A
O161       Ni164   1.910       .  S
O161        C166   1.277       .  A
O162       Ni164   1.908       .  S
O162        C165   1.277       .  A
Ni163      Ni164   2.394       .  S
C165        C569   1.434       .  S
C166        C601   1.435       .  S
C167        C636   1.436       .  S
C168        C584   1.434       .  S
O169       Ni177   1.925       .  S
O169        C179   1.282       .  A
O170       Ni177   1.926   1_554  S
O170        C180   1.282       .  A
O171       Ni177   1.910       .  S
O171        C181   1.278       .  A
O172       Ni177   1.908       .  S
O172        C182   1.277       .  A
O173       Ni178   1.925       .  S
O173        C182   1.282       .  A
O174       Ni178   1.926       .  S
O174        C181   1.282       .  A
O175       Ni178   1.910   1_554  S
O175        C180   1.278       .  A
O176       Ni178   1.909       .  S
O176        C179   1.277       .  A
Ni177      Ni178   2.394       .  S
C179        C557   1.434       .  S
C180        C564   1.435       .  S
C181        C621   1.436       .  S
C182        C565   1.434       .  S
O183       Ni191   1.925       .  S
O183        C193   1.282       .  A
O184       Ni191   1.926   1_554  S
O184        C194   1.282       .  A
O185       Ni191   1.910       .  S
O185        C195   1.278       .  A
O186       Ni191   1.909       .  S
O186        C196   1.277       .  A
O187       Ni192   1.925       .  S
O187        C196   1.282       .  A
O188       Ni192   1.926       .  S
O188        C195   1.282       .  A
O189       Ni192   1.910   1_554  S
O189        C194   1.277       .  A
O190       Ni192   1.908       .  S
O190        C193   1.277       .  A
Ni191      Ni192   2.394       .  S
C193        C548   1.434       .  S
C194        C553   1.435       .  S
C195        C549   1.436       .  S
C196        C568   1.434       .  S
O197       Ni205   1.926       .  S
O197        C207   1.282       .  A
O198       Ni205   1.924       .  S
O198        C208   1.282       .  A
O199       Ni205   1.908       .  S
O199        C209   1.277       .  A
O200       Ni205   1.910       .  S
O200        C210   1.277       .  A
O201       Ni206   1.926       .  S
O201        C210   1.282       .  A
O202       Ni206   1.925       .  S
O202        C209   1.282       .  A
O203       Ni206   1.908       .  S
O203        C208   1.277       .  A
O204       Ni206   1.910       .  S
O204        C207   1.277       .  A
Ni205      Ni206   2.394       .  S
C207        C537   1.435       .  S
C208        C544   1.433       .  S
C209        C536   1.434       .  S
C210        C561   1.435       .  S
O211       Ni219   1.925       .  S
O211        C221   1.282       .  A
O212       Ni219   1.926       .  S
O212        C222   1.282       .  A
O213       Ni219   1.910       .  S
O213        C223   1.278       .  A
O214       Ni219   1.908       .  S
O214        C224   1.277       .  A
O215       Ni220   1.924       .  S
O215        C224   1.282       .  A
O216       Ni220   1.926       .  S
O216        C223   1.282       .  A
O217       Ni220   1.910       .  S
O217        C222   1.278       .  A
O218       Ni220   1.909       .  S
O218        C221   1.277       .  A
Ni219      Ni220   2.394       .  S
C221        C532   1.434       .  S
C222        C556   1.435       .  S
C223        C661   1.435       .  S
C224        C541   1.433       .  S
O225       Ni233   1.925       .  S
O225        C939   1.282       .  A
O226       Ni937   1.926       .  S
O226        C236   1.282       .  A
O227       Ni937   1.908       .  S
O227        C237   1.277       .  A
O228       Ni233   1.910       .  S
O228        C238   1.278       .  A
O229       Ni234   1.926       .  S
O229        C942   1.282       .  A
O230       Ni234   1.925       .  S
O230        C237   1.282       .  A
O231       Ni234   1.910       .  S
O231        C236   1.278       .  A
O232       Ni234   1.908       .  S
O232        C235   1.277       .  A
Ni233       O930   1.926       .  S
Ni233       O931   1.908       .  S
Ni233      Ni938   2.394   1_455  S
Ni234      Ni937   2.394       .  S
C235        O929   1.282       .  A
C235       C1396   1.434       .  S
C236        C521   1.435       .  S
C237        C528   1.433       .  S
C238        O933   1.282   1_455  A
C238        C580   1.436       .  S
O239       Ni247   1.925       .  S
O239        C249   1.282       .  A
O240       Ni247   1.926       .  S
O240        C250   1.282       .  A
O241       Ni247   1.908       .  S
O241        C251   1.277       .  A
O242       Ni247   1.910       .  S
O242        C252   1.277       .  A
O243       Ni248   1.926       .  S
O243        C252   1.282       .  A
O244       Ni248   1.925       .  S
O244        C251   1.282       .  A
O245       Ni248   1.910       .  S
O245        C250   1.277       .  A
O246       Ni248   1.909       .  S
O246        C249   1.277       .  A
Ni247      Ni248   2.394       .  S
C249        C680   1.434       .  S
C250        C520   1.435       .  S
C251        C525   1.433       .  S
C252        C513   1.435       .  S
O253       Ni261   1.925   1_554  S
O253        C263   1.282       .  A
O254       Ni261   1.926       .  S
O254        C264   1.282       .  A
O255       Ni261   1.908       .  S
O255        C265   1.277       .  A
O256       Ni261   1.910       .  S
O256        C266   1.278       .  A
O257       Ni262   1.926       .  S
O257        C266   1.282       .  A
O258       Ni262   1.925       .  S
O258        C265   1.282       .  A
O259       Ni262   1.910       .  S
O259        C264   1.277       .  A
O260       Ni262   1.908   1_554  S
O260        C263   1.277       .  A
Ni261      Ni262   2.394       .  S
C263        C665   1.434       .  S
C264        C524   1.435       .  S
C265        C509   1.433       .  S
C266        C508   1.435       .  S
O267       Ni275   1.925   1_554  S
O267        C277   1.282       .  A
O268       Ni979   1.926       .  S
O268        C278   1.282       .  A
O269       Ni979   1.908       .  S
O269        C279   1.277       .  A
O270       Ni275   1.910       .  S
O270        C280   1.278       .  A
O271       Ni276   1.926       .  S
O271        C984   1.282       .  A
O272       Ni276   1.925       .  S
O272        C279   1.282       .  A
O273       Ni276   1.910       .  S
O273        C278   1.277       .  A
O274       Ni276   1.908   1_554  S
O274        C981   1.277       .  A
Ni275       O972   1.926       .  S
Ni275       O973   1.908       .  S
Ni275      Ni980   2.394   1_455  S
Ni276      Ni979   2.394       .  S
C277        O978   1.277   1_455  A
C277        C657   1.434       .  S
C278        C517   1.435       .  S
C279        C512   1.433       .  S
C280        O975   1.282   1_455  A
C280        C552   1.436       .  S
O281       Ni289   1.926       .  S
O281        C291   1.282       .  A
O282       Ni289   1.926       .  S
O282        C292   1.282       .  A
O283       Ni289   1.910       .  S
O283        C293   1.277       .  A
O284       Ni289   1.908       .  S
O284        C998   1.277       .  A
O285       Ni994   1.924       .  S
O285        C294   1.282   1_455  A
O286       Ni290   1.925       .  S
O286        C293   1.282       .  A
O287       Ni994   1.910       .  S
O287        C996   1.277   1_455  A
O288       Ni290   1.908       .  S
O288        C291   1.277       .  A
Ni289      Ni290   2.394       .  S
Ni290       O989   1.924       .  S
Ni290       O991   1.910       .  S
C291        C560   1.434       .  S
C292        O991   1.277       .  A
C292       C1204   1.435       .  S
C293        C648   1.435       .  S
C294        O988   1.277       .  A
C294        C501   1.433   1_655  S
O295       Ni303   1.925       .  S
O295        C305   1.282       .  A
O296       Ni303   1.926       .  S
O296        C306   1.282       .  A
O297       Ni303   1.910       .  S
O297        C307   1.277       .  A
O298       Ni303   1.908       .  S
O298        C308   1.277       .  A
O299       Ni304   1.925       .  S
O299        C308   1.282       .  A
O300       Ni304   1.926       .  S
O300        C307   1.282       .  A
O301       Ni304   1.910       .  S
O301        C306   1.278       .  A
O302       Ni304   1.909       .  S
O302        C305   1.277       .  A
Ni303      Ni304   2.394       .  S
C305        C545   1.434       .  S
C306        C496   1.435       .  S
C307        C516   1.435       .  S
C308        C504   1.433       .  S
O309       Ni317   1.925       .  S
O309        C319   1.282       .  A
O310       Ni317   1.926       .  S
O310        C320   1.282       .  A
O311       Ni317   1.910       .  S
O311        C321   1.278       .  A
O312       Ni317   1.908       .  S
O312        C322   1.277       .  A
O313       Ni318   1.925       .  S
O313        C322   1.282       .  A
O314       Ni318   1.926       .  S
O314        C321   1.282       .  A
O315       Ni318   1.910       .  S
O315        C320   1.278       .  A
O316       Ni318   1.909       .  S
O316        C319   1.277       .  A
Ni317      Ni318   2.394       .  S
C319        C533   1.434       .  S
C320        C497   1.435       .  S
C321        C485   1.436       .  S
C322        C489   1.434       .  S
O323       Ni331   1.925       .  S
O323        C333   1.282       .  A
O324       Ni331   1.926       .  S
O324        C334   1.282       .  A
O325       Ni331   1.910       .  S
O325        C335   1.278       .  A
O326       Ni331   1.909       .  S
O326       C1040   1.277       .  A
O327       Ni332   1.925       .  S
O327        C336   1.282   1_455  A
O328      Ni1036   1.926       .  S
O328        C335   1.282       .  A
O329       Ni332   1.910       .  S
O329       C1038   1.277   1_455  A
O330      Ni1036   1.908       .  S
O330        C333   1.277       .  A
Ni331     Ni1036   2.394       .  S
Ni332      O1032   1.926   1_455  S
Ni332      O1034   1.908   1_455  S
Ni332     Ni1035   2.394   1_455  S
C333        C529   1.434       .  S
C334       O1033   1.277       .  A
C334       C1197   1.435       .  S
C335        C684   1.436       .  S
C336       O1030   1.277       .  A
C336        C492   1.434   1_655  S
O337       Ni345   1.925       .  S
O337        C347   1.282       .  A
O338       Ni345   1.926       .  S
O338        C348   1.282       .  A
O339       Ni345   1.908       .  S
O339        C349   1.277       .  A
O340       Ni345   1.910       .  S
O340        C350   1.278       .  A
O341       Ni346   1.926       .  S
O341        C350   1.282       .  A
O342       Ni346   1.925       .  S
O342        C349   1.282       .  A
O343       Ni346   1.910       .  S
O343        C348   1.278       .  A
O344       Ni346   1.909       .  S
O344        C347   1.277       .  A
Ni345      Ni346   2.394       .  S
C347        C644   1.434       .  S
C348        C477   1.435       .  S
C349        C484   1.433       .  S
C350        C488   1.436       .  S
O351       Ni359   1.925       .  S
O351       C1065   1.282       .  A
O352       Ni359   1.924       .  S
O352        C362   1.282       .  A
O353       Ni359   1.910       .  S
O353        C363   1.277       .  A
O354       Ni359   1.908       .  S
O354        C364   1.277       .  A
O355       Ni360   1.926       .  S
O355       C1068   1.282       .  A
O356      Ni1064   1.926       .  S
O356        C363   1.282       .  A
O357      Ni1064   1.908       .  S
O357        C362   1.277       .  A
O358       Ni360   1.910       .  S
O358        C361   1.277       .  A
Ni359     Ni1064   2.394       .  S
Ni360      O1060   1.926       .  S
Ni360      O1061   1.908       .  S
Ni360     Ni1063   2.394   1_455  S
C361       O1055   1.282   1_455  A
C361        C597   1.435       .  S
C362        C481   1.433       .  S
C363        C476   1.435       .  S
C364       O1059   1.282       .  A
C364       C1336   1.434       .  S
O365       Ni373   1.926       .  S
O365        C375   1.282       .  A
O366      Ni1077   1.926       .  S
O366        C376   1.282       .  A
O367      Ni1077   1.909       .  S
O367        C377   1.277       .  A
O368       Ni373   1.910       .  S
O368        C378   1.277       .  A
O369       Ni374   1.926       .  S
O369       C1082   1.282       .  A
O370       Ni374   1.925       .  S
O370        C377   1.282       .  A
O371       Ni374   1.910       .  S
O371        C376   1.277       .  A
O372       Ni374   1.908       .  S
O372       C1079   1.277       .  A
Ni373      O1070   1.926       .  S
Ni373      O1071   1.909       .  S
Ni373     Ni1078   2.394   1_455  S
Ni374     Ni1077   2.394       .  S
C375       O1076   1.277   1_455  A
C375        C620   1.434       .  S
C376        C480   1.435       .  S
C377        C472   1.433       .  S
C378       O1073   1.282   1_455  A
C378        C540   1.435       .  S
O379       Ni387   1.925       .  S
O379        C389   1.282       .  A
O380       Ni387   1.926       .  S
O380        C390   1.282       .  A
O381       Ni387   1.908       .  S
O381        C391   1.277       .  A
O382       Ni387   1.911       .  S
O382        C392   1.278       .  A
O383       Ni388   1.926       .  S
O383        C392   1.282       .  A
O384       Ni388   1.925       .  S
O384        C391   1.282       .  A
O385       Ni388   1.910       .  S
O385        C390   1.278       .  A
O386       Ni388   1.909       .  S
O386        C389   1.277       .  A
Ni387      Ni388   2.394       .  S
C389        C612   1.434       .  S
C390        C473   1.436       .  S
C391        C469   1.433       .  S
C392        C465   1.436       .  S
O393       Ni401   1.925       .  S
O393        C403   1.282       .  A
O394       Ni401   1.926   1_554  S
O394        C404   1.282       .  A
O395       Ni401   1.910       .  S
O395        C405   1.277       .  A
O396       Ni401   1.908       .  S
O396        C406   1.277       .  A
O397       Ni402   1.925       .  S
O397        C406   1.282       .  A
O398       Ni402   1.926       .  S
O398        C405   1.282       .  A
O399       Ni402   1.910   1_554  S
O399        C404   1.278       .  A
O400       Ni402   1.909       .  S
O400        C403   1.277       .  A
Ni401      Ni402   2.394       .  S
C403        C576   1.434       .  S
C404        C460   1.435       .  S
C405        C505   1.435       .  S
C406        C464   1.433       .  S
O407      Ni1119   1.926       .  S
O407        C417   1.282       .  A
O408       Ni415   1.924       .  S
O408        C418   1.282   1_455  A
O409      Ni1119   1.908       .  S
O409        C419   1.277       .  A
O410       Ni415   1.910   1_554  S
O410        C420   1.277   1_455  A
O411       Ni416   1.926   1_554  S
O411       C1124   1.282       .  A
O412       Ni416   1.925       .  S
O412        C419   1.282       .  A
O413       Ni416   1.908       .  S
O413       C1122   1.277       .  A
O414       Ni416   1.910       .  S
O414        C417   1.277       .  A
Ni415      O1111   1.926   1_455  S
Ni415      O1113   1.908   1_455  S
Ni415     Ni1120   2.394   1_455  S
Ni416     Ni1119   2.394       .  S
C417        C613   1.435       .  S
C418       O1117   1.277       .  A
C418        C461   1.433   1_655  S
C419        C572   1.434       .  S
C420       O1115   1.282       .  A
C420        C453   1.435       .  S
O421       Ni429   1.926       .  S
O421        C431   1.282       .  A
O422      Ni1133   1.925       .  S
O422       C1136   1.282   1_455  A
O423       Ni429   1.908       .  S
O423        C433   1.277       .  A
O424       Ni429   1.910       .  S
O424        C434   1.277       .  A
O425       Ni430   1.926       .  S
O425        C434   1.282       .  A
O426       Ni430   1.925       .  S
O426        C433   1.282       .  A
O427       Ni430   1.909       .  S
O427        C432   1.277       .  A
O428       Ni430   1.910       .  S
O428        C431   1.278       .  A
Ni429      O1126   1.925       .  S
Ni429      Ni430   2.394       .  S
C431        C672   1.436       .  S
C432       O1126   1.282       .  A
C432        C452   1.434       .  S
C433        C585   1.434       .  S
C434        C457   1.435       .  S
O435       Ni443   1.925       .  S
O435        C445   1.282       .  A
O436       Ni443   1.926       .  S
O436        C446   1.282       .  A
O437       Ni443   1.911       .  S
O437        C447   1.278       .  A
O438       Ni443   1.909       .  S
O438        C448   1.277       .  A
O439       Ni444   1.925       .  S
O439        C448   1.282       .  A
O440       Ni444   1.926       .  S
O440        C447   1.282       .  A
O441       Ni444   1.910       .  S
O441        C446   1.278       .  A
O442       Ni444   1.909       .  S
O442        C445   1.277       .  A
Ni443      Ni444   2.394       .  S
C445        C593   1.434       .  S
C446        C456   1.435       .  S
C447        C468   1.436       .  S
C448        C449   1.434       .  S
C449        C450   1.205       .  T
C450        C451   1.411       .  S
C451       C1156   1.205       .  T
C452       C1155   1.205       .  T
C453        C454   1.206   1_655  T
C454        C455   1.413       .  S
C455        C456   1.206       .  T
C457       C1162   1.206       .  T
C458       C1161   1.206   1_455  T
C458        C459   1.413       .  S
C459        C460   1.206       .  T
C461        C462   1.205       .  T
C462        C463   1.410       .  S
C463        C464   1.205       .  T
C465        C466   1.206       .  T
C466        C467   1.413       .  S
C467        C468   1.206       .  T
C469        C470   1.205       .  T
C470        C471   1.411       .  S
C471        C472   1.205       .  T
C473        C474   1.206       .  T
C474        C475   1.413       .  S
C475        C476   1.206       .  T
C477        C478   1.206       .  T
C478        C479   1.413       .  S
C479        C480   1.206       .  T
C481        C482   1.205       .  T
C482        C483   1.410       .  S
C483        C484   1.205       .  T
C485        C486   1.206       .  T
C486        C487   1.413       .  S
C487        C488   1.206       .  T
C489        C490   1.205       .  T
C490        C491   1.411       .  S
C491        C492   1.205       .  T
C493       C1038   1.435       .  S
C493        C494   1.206   1_655  T
C494        C495   1.413       .  S
C495        C496   1.206       .  T
C497        C498   1.206       .  T
C498        C499   1.413       .  S
C499        C500   1.206       .  T
C500        C996   1.435   1_455  S
C501        C502   1.205       .  T
C502        C503   1.410       .  S
C503        C504   1.204       .  T
C505        C506   1.206       .  T
C506        C507   1.413   1_545  S
C507        C508   1.206       .  T
C509        C510   1.205       .  T
C510        C511   1.411       .  S
C511        C512   1.205       .  T
C513        C514   1.206       .  T
C514        C515   1.413       .  S
C515        C516   1.206       .  T
C517        C518   1.206       .  T
C518        C519   1.413       .  S
C519        C520   1.206       .  T
C521        C522   1.206       .  T
C522        C523   1.413       .  S
C523        C524   1.206       .  T
C525        C526   1.205       .  T
C526        C527   1.411       .  S
C527        C528   1.205       .  T
C529        C530   1.205       .  T
C530        C531   1.411       .  S
C531        C532   1.205       .  T
C533        C534   1.205       .  T
C534        C535   1.411       .  S
C535        C536   1.205       .  T
C537        C538   1.206       .  T
C538        C539   1.412       .  S
C539        C540   1.206       .  T
C541        C542   1.204       .  T
C542        C543   1.410       .  S
C543        C544   1.205       .  T
C545        C546   1.205       .  T
C546        C547   1.411       .  S
C547        C548   1.205       .  T
C549        C550   1.206       .  T
C550        C551   1.413       .  S
C551        C552   1.206       .  T
C553        C554   1.206       .  T
C554        C555   1.413       .  S
C555        C556   1.206       .  T
C557        C558   1.205       .  T
C558        C559   1.411       .  S
C559        C560   1.205       .  T
C561        C562   1.206       .  T
C562        C563   1.413       .  S
C563        C564   1.206       .  T
C565        C566   1.205       .  T
C566        C567   1.411       .  S
C567        C568   1.205       .  T
C569        C570   1.205       .  T
C570        C571   1.411       .  S
C571        C572   1.205       .  T
C573        C574   1.205       .  T
C574        C575   1.411       .  S
C575        C576   1.205       .  T
C577        C578   1.206       .  T
C578        C579   1.413   1_545  S
C579        C580   1.206       .  T
C581        C582   1.205       .  T
C582        C583   1.411       .  S
C583        C584   1.205       .  T
C585        C586   1.205       .  T
C586        C587   1.411       .  S
C587        C588   1.205       .  T
C589        C590   1.206       .  T
C590        C591   1.413       .  S
C591        C592   1.206       .  T
C593        C594   1.205       .  T
C594        C595   1.411       .  S
C595        C596   1.205       .  T
C597        C598   1.206       .  T
C598        C599   1.412       .  S
C599        C600   1.206       .  T
C601        C602   1.206       .  T
C602        C603   1.413       .  S
C603        C604   1.206       .  T
C605        C606   1.204       .  T
C606        C607   1.410       .  S
C607        C608   1.204       .  T
C609        C610   1.205       .  T
C610        C611   1.411       .  S
C611        C612   1.205       .  T
C613        C614   1.206       .  T
C614        C615   1.412       .  S
C615        C616   1.206       .  T
C617        C618   1.205       .  T
C618        C619   1.411       .  S
C619        C620   1.205       .  T
C621        C622   1.206       .  T
C622        C623   1.413       .  S
C623       C1328   1.206       .  T
C624       C1327   1.206   1_455  T
C625        C626   1.205       .  T
C626        C627   1.410       .  S
C627        C628   1.205       .  T
C629        C630   1.205       .  T
C630        C631   1.411       .  S
C631        C632   1.205       .  T
C632       C1068   1.434       .  S
C633       C1338   1.206   1_455  T
C634       C1337   1.206       .  T
C634        C635   1.413       .  S
C635        C636   1.206       .  T
C637        C638   1.206       .  T
C638        C639   1.413       .  S
C639        C640   1.206       .  T
C641        C642   1.205       .  T
C642        C643   1.411       .  S
C643        C644   1.205       .  T
C645        C646   1.206       .  T
C646        C647   1.412       .  S
C647        C648   1.206       .  T
C649        C650   1.206       .  T
C650        C651   1.413       .  S
C651        C652   1.206       .  T
C653        C654   1.205       .  T
C654        C655   1.411       .  S
C655        C656   1.205       .  T
C657        C658   1.205       .  T
C658        C659   1.411       .  S
C659        C660   1.205       .  T
C661        C662   1.206       .  T
C662       C1367   1.412       .  S
C663        C664   1.206   1_655  T
C663       C1366   1.412       .  S
C665        C666   1.205       .  T
C666        C667   1.411       .  S
C667        C668   1.205       .  T
C669        C670   1.206       .  T
C670        C671   1.413   1_565  S
C671        C672   1.206       .  T
C673        C674   1.205       .  T
C674        C675   1.411       .  S
C675        C676   1.205       .  T
C677        C678   1.205       .  T
C678        C679   1.411       .  S
C679        C680   1.205       .  T
C681        C682   1.206       .  T
C682        C683   1.413       .  S
C683        C684   1.206       .  T
C685        C686   1.206       .  T
C686        C687   1.413       .  S
C687        C688   1.206       .  T
C689        C690   1.205       .  T
C690        C691   1.411       .  S
C691        C692   1.205       .  T
C692        C939   1.434       .  S
C693        C694   1.206       .  T
C694        C695   1.413   1_545  S
C695       C1400   1.206       .  T
C696       C1399   1.206   1_455  T
C697        C698   1.206       .  T
C698        C699   1.413       .  S
C699        C700   1.206       .  T
C701        C702   1.205       .  T
C702        C703   1.411       .  S
C703        C704   1.205       .  T
O705       Ni713   1.925       .  S
O705        C715   1.282       .  A
O706       Ni713   1.926       .  S
O706        C716   1.282       .  A
O707       Ni713   1.908       .  S
O707        C717   1.277       .  A
O708       Ni713   1.910       .  S
O708        C718   1.277       .  A
O709       Ni714   1.926       .  S
O709        C718   1.282       .  A
O710       Ni714   1.925       .  S
O710        C717   1.282       .  A
O711       Ni714   1.910       .  S
O711        C716   1.277       .  A
O712       Ni714   1.908       .  S
O712        C715   1.277       .  A
Ni713      Ni714   2.394       .  S
C715       C1393   1.434       .  S
C716       C1401   1.435       .  S
C717       C1405   1.433       .  S
C718       C1400   1.435       .  S
O719       Ni727   1.925       .  S
O719        C729   1.282       .  A
O720       Ni727   1.926       .  S
O720        C730   1.282       .  A
O721       Ni727   1.908       .  S
O721        C731   1.277       .  A
O722       Ni727   1.910       .  S
O722        C732   1.278       .  A
O723       Ni728   1.926       .  S
O723        C732   1.282       .  A
O724       Ni728   1.925       .  S
O724        C731   1.282       .  A
O725       Ni728   1.910       .  S
O725        C730   1.277       .  A
O726       Ni728   1.909       .  S
O726        C729   1.277       .  A
Ni727      Ni728   2.394       .  S
C729       C1381   1.434       .  S
C730       C1389   1.435       .  S
C731       C1408   1.433       .  S
C732       C1385   1.436       .  S
O733       Ni741   1.925       .  S
O733        C743   1.282       .  A
O734       Ni741   1.926       .  S
O734        C744   1.282       .  A
O735       Ni741   1.908       .  S
O735        C745   1.277       .  A
O736       Ni741   1.910       .  S
O736        C746   1.278       .  A
O737       Ni742   1.926       .  S
O737        C746   1.282       .  A
O738       Ni742   1.925       .  S
O738        C745   1.282       .  A
O739       Ni742   1.910       .  S
O739        C744   1.278       .  A
O740       Ni742   1.909       .  S
O740        C743   1.277       .  A
Ni741      Ni742   2.394       .  S
C743       C1372   1.434       .  S
C744       C1404   1.435       .  S
C745       C1380   1.433       .  S
C746       C1373   1.436       .  S
O747       Ni755   1.925       .  S
O747        C757   1.282       .  A
O748       Ni755   1.926       .  S
O748        C758   1.282       .  A
O749       Ni755   1.908       .  S
O749        C759   1.277       .  A
O750       Ni755   1.910       .  S
O750        C760   1.277       .  A
O751       Ni756   1.926       .  S
O751        C760   1.282       .  A
O752       Ni756   1.925       .  S
O752        C759   1.282       .  A
O753       Ni756   1.910       .  S
O753        C758   1.277       .  A
O754       Ni756   1.908       .  S
O754        C757   1.277       .  A
Ni755      Ni756   2.394       .  S
C757       C1364   1.434       .  S
C758       C1392   1.435       .  S
C759       C1377   1.433       .  S
C760       C1368   1.435       .  S
O761       Ni769   1.926       .  S
O761        C771   1.282       .  A
O762       Ni769   1.926       .  S
O762        C772   1.282       .  A
O763       Ni769   1.909       .  S
O763        C773   1.277       .  A
O764       Ni769   1.910       .  S
O764        C774   1.277       .  A
O765       Ni770   1.926       .  S
O765        C774   1.282       .  A
O766       Ni770   1.925       .  S
O766        C773   1.282       .  A
O767       Ni770   1.910       .  S
O767        C772   1.277       .  A
O768       Ni770   1.908       .  S
O768        C771   1.277       .  A
Ni769      Ni770   2.394       .  S
C771       C1345   1.434       .  S
C772       C1356   1.435       .  S
C773       C1357   1.433       .  S
C774       C1349   1.435       .  S
O775       Ni783   1.925       .  S
O775        C785   1.282       .  A
O776       Ni783   1.926       .  S
O776        C786   1.282       .  A
O777       Ni783   1.908       .  S
O777        C787   1.277       .  A
O778       Ni783   1.910       .  S
O778        C788   1.278       .  A
O779       Ni784   1.926       .  S
O779        C788   1.282       .  A
O780       Ni784   1.925       .  S
O780        C787   1.282       .  A
O781       Ni784   1.910       .  S
O781        C786   1.278       .  A
O782       Ni784   1.909       .  S
O782        C785   1.277       .  A
Ni783      Ni784   2.394       .  S
C785       C1333   1.434       .  S
C786       C1344   1.435       .  S
C787       C1360   1.433       .  S
C788       C1337   1.436       .  S
O789       Ni797   1.925   1_554  S
O789        C799   1.282       .  A
O790       Ni797   1.926       .  S
O790        C800   1.282       .  A
O791       Ni797   1.908       .  S
O791        C801   1.277       .  A
O792       Ni797   1.910       .  S
O792        C802   1.278       .  A
O793       Ni798   1.926       .  S
O793        C802   1.282       .  A
O794       Ni798   1.925       .  S
O794        C801   1.282       .  A
O795       Ni798   1.910       .  S
O795        C800   1.278       .  A
O796       Ni798   1.909   1_554  S
O796        C799   1.277       .  A
Ni797      Ni798   2.394       .  S
C799       C1321   1.434       .  S
C800       C1353   1.435       .  S
C801       C1329   1.433       .  S
C802       C1328   1.436       .  S
O803       Ni811   1.925   1_554  S
O803        C813   1.282       .  A
O804       Ni811   1.926       .  S
O804        C814   1.282       .  A
O805       Ni811   1.908       .  S
O805        C815   1.277       .  A
O806       Ni811   1.910       .  S
O806        C816   1.277       .  A
O807       Ni812   1.926       .  S
O807        C816   1.282       .  A
O808       Ni812   1.924       .  S
O808        C815   1.282       .  A
O809       Ni812   1.910       .  S
O809        C814   1.277       .  A
O810       Ni812   1.908   1_554  S
O810        C813   1.277       .  A
Ni811      Ni812   2.394       .  S
C813       C1313   1.434       .  S
C814       C1341   1.435       .  S
C815       C1332   1.433       .  S
C816       C1320   1.435       .  S
O817       Ni825   1.925       .  S
O817        C827   1.282       .  A
O818       Ni825   1.926       .  S
O818        C828   1.282       .  A
O819       Ni825   1.910       .  S
O819        C829   1.277       .  A
O820       Ni825   1.908       .  S
O820        C830   1.277       .  A
O821       Ni826   1.924       .  S
O821        C830   1.282       .  A
O822       Ni826   1.925       .  S
O822        C829   1.282       .  A
O823       Ni826   1.910       .  S
O823        C828   1.278       .  A
O824       Ni826   1.909       .  S
O824        C827   1.277       .  A
Ni825      Ni826   2.394       .  S
C827       C1300   1.434       .  S
C828       C1308   1.435       .  S
C829       C1304   1.435       .  S
C830       C1312   1.433       .  S
O831       Ni839   1.925       .  S
O831        C841   1.282       .  A
O832       Ni839   1.926       .  S
O832        C842   1.282       .  A
O833       Ni839   1.910       .  S
O833        C843   1.277       .  A
O834       Ni839   1.908       .  S
O834        C844   1.277       .  A
O835       Ni840   1.925       .  S
O835        C844   1.282       .  A
O836       Ni840   1.926       .  S
O836        C843   1.282       .  A
O837       Ni840   1.910       .  S
O837        C842   1.278       .  A
O838       Ni840   1.909       .  S
O838        C841   1.277       .  A
Ni839      Ni840   2.394       .  S
C841       C1292   1.434       .  S
C842       C1293   1.435       .  S
C843       C1397   1.435       .  S
C844       C1309   1.433       .  S
O845       Ni853   1.926       .  S
O845        C855   1.282       .  A
O846       Ni853   1.926       .  S
O846        C856   1.282       .  A
O847       Ni853   1.910       .  S
O847        C857   1.278       .  A
O848       Ni853   1.909       .  S
O848        C858   1.277       .  A
O849       Ni854   1.925       .  S
O849        C858   1.282       .  A
O850       Ni854   1.926       .  S
O850        C857   1.282       .  A
O851       Ni854   1.910       .  S
O851        C856   1.277       .  A
O852       Ni854   1.908       .  S
O852        C855   1.277       .  A
Ni853      Ni854   2.394       .  S
C855       C1277   1.434       .  S
C856       C1296   1.435       .  S
C857       C1281   1.436       .  S
C858       C1285   1.434       .  S
O859       Ni867   1.925       .  S
O859        C869   1.282       .  A
O860       Ni867   1.926       .  S
O860        C870   1.282       .  A
O861       Ni867   1.910       .  S
O861        C871   1.278       .  A
O862       Ni867   1.909       .  S
O862        C872   1.277       .  A
O863       Ni868   1.925       .  S
O863        C872   1.282       .  A
O864       Ni868   1.926       .  S
O864        C871   1.282       .  A
O865       Ni868   1.910       .  S
O865        C870   1.278       .  A
O866       Ni868   1.908       .  S
O866        C869   1.277       .  A
Ni867      Ni868   2.394       .  S
C869       C1273   1.434       .  S
C870       C1305   1.435       .  S
C871       C1340   1.436       .  S
C872       C1288   1.434       .  S
O873       Ni881   1.925       .  S
O873        C883   1.282       .  A
O874       Ni881   1.926   1_554  S
O874        C884   1.282       .  A
O875       Ni881   1.910       .  S
O875        C885   1.278       .  A
O876       Ni881   1.908       .  S
O876        C886   1.277       .  A
O877       Ni882   1.925       .  S
O877        C886   1.282       .  A
O878       Ni882   1.926       .  S
O878        C885   1.282       .  A
O879       Ni882   1.910   1_554  S
O879        C884   1.278       .  A
O880       Ni882   1.909       .  S
O880        C883   1.277       .  A
Ni881      Ni882   2.394       .  S
C883       C1261   1.434       .  S
C884       C1268   1.435       .  S
C885       C1325   1.436       .  S
C886       C1269   1.434       .  S
O887       Ni895   1.925       .  S
O887        C897   1.282       .  A
O888       Ni895   1.926   1_554  S
O888        C898   1.282       .  A
O889       Ni895   1.910       .  S
O889        C899   1.278       .  A
O890       Ni895   1.909       .  S
O890        C900   1.277       .  A
O891       Ni896   1.925       .  S
O891        C900   1.282       .  A
O892       Ni896   1.926       .  S
O892        C899   1.282       .  A
O893       Ni896   1.910   1_554  S
O893        C898   1.277       .  A
O894       Ni896   1.908       .  S
O894        C897   1.277       .  A
Ni895      Ni896   2.394       .  S
C897       C1252   1.434       .  S
C898       C1257   1.435       .  S
C899       C1253   1.436       .  S
C900       C1272   1.434       .  S
O901       Ni909   1.926       .  S
O901        C911   1.282       .  A
O902       Ni909   1.924       .  S
O902        C912   1.282       .  A
O903       Ni909   1.908       .  S
O903        C913   1.277       .  A
O904       Ni909   1.910       .  S
O904        C914   1.277       .  A
O905       Ni910   1.926       .  S
O905        C914   1.282       .  A
O906       Ni910   1.925       .  S
O906        C913   1.282       .  A
O907       Ni910   1.908       .  S
O907        C912   1.277       .  A
O908       Ni910   1.910       .  S
O908        C911   1.277       .  A
Ni909      Ni910   2.394       .  S
C911       C1241   1.435       .  S
C912       C1248   1.433       .  S
C913       C1240   1.434       .  S
C914       C1265   1.435       .  S
O915       Ni923   1.925       .  S
O915        C925   1.282       .  A
O916       Ni923   1.926       .  S
O916        C926   1.282       .  A
O917       Ni923   1.910       .  S
O917        C927   1.277       .  A
O918       Ni923   1.908       .  S
O918        C928   1.277       .  A
O919       Ni924   1.924       .  S
O919        C928   1.282       .  A
O920       Ni924   1.926       .  S
O920        C927   1.282       .  A
O921       Ni924   1.910       .  S
O921        C926   1.278       .  A
O922       Ni924   1.909       .  S
O922        C925   1.277       .  A
Ni923      Ni924   2.394       .  S
C925       C1236   1.434       .  S
C926       C1260   1.435       .  S
C927       C1365   1.435       .  S
C928       C1245   1.433       .  S
O929       Ni937   1.925       .  S
O930        C940   1.282   1_455  A
O931        C941   1.277   1_455  A
O932       Ni937   1.910       .  S
O932        C942   1.278       .  A
O933       Ni938   1.926       .  S
O934       Ni938   1.925       .  S
O934        C941   1.282       .  A
O935       Ni938   1.910       .  S
O935        C940   1.278       .  A
O936       Ni938   1.908       .  S
O936        C939   1.277   1_655  A
C940       C1225   1.435       .  S
C941       C1232   1.433       .  S
C942       C1284   1.436       .  S
O943       Ni951   1.925       .  S
O943        C953   1.282       .  A
O944       Ni951   1.926       .  S
O944        C954   1.282       .  A
O945       Ni951   1.908       .  S
O945        C955   1.277       .  A
O946       Ni951   1.910       .  S
O946        C956   1.277       .  A
O947       Ni952   1.926       .  S
O947        C956   1.282       .  A
O948       Ni952   1.925       .  S
O948        C955   1.282       .  A
O949       Ni952   1.910       .  S
O949        C954   1.277       .  A
O950       Ni952   1.909       .  S
O950        C953   1.277       .  A
Ni951      Ni952   2.394       .  S
C953       C1384   1.434       .  S
C954       C1224   1.435       .  S
C955       C1229   1.433       .  S
C956       C1217   1.435       .  S
O957       Ni965   1.925   1_554  S
O957        C967   1.282       .  A
O958       Ni965   1.926       .  S
O958        C968   1.282       .  A
O959       Ni965   1.908       .  S
O959        C969   1.277       .  A
O960       Ni965   1.910       .  S
O960        C970   1.278       .  A
O961       Ni966   1.926       .  S
O961        C970   1.282       .  A
O962       Ni966   1.925       .  S
O962        C969   1.282       .  A
O963       Ni966   1.910       .  S
O963        C968   1.277       .  A
O964       Ni966   1.908   1_554  S
O964        C967   1.277       .  A
Ni965      Ni966   2.394       .  S
C967       C1369   1.434       .  S
C968       C1228   1.435       .  S
C969       C1213   1.433       .  S
C970       C1212   1.435       .  S
O971       Ni979   1.925   1_554  S
O971        C981   1.282       .  A
O972        C982   1.282   1_455  A
O973        C983   1.277   1_455  A
O974       Ni979   1.910       .  S
O974        C984   1.278       .  A
O975       Ni980   1.926       .  S
O976       Ni980   1.925       .  S
O976        C983   1.282       .  A
O977       Ni980   1.910       .  S
O977        C982   1.277       .  A
O978       Ni980   1.908   1_554  S
C981       C1361   1.434       .  S
C982       C1221   1.435       .  S
C983       C1216   1.433       .  S
C984       C1256   1.436       .  S
O985       Ni993   1.926       .  S
O985        C995   1.282       .  A
O986       Ni993   1.926       .  S
O986        C996   1.282       .  A
O987       Ni993   1.910       .  S
O987        C997   1.277       .  A
O988       Ni993   1.908       .  S
O989        C998   1.282       .  A
O990       Ni994   1.925   1_655  S
O990        C997   1.282       .  A
O992       Ni994   1.908   1_655  S
O992        C995   1.277       .  A
Ni993      Ni994   2.394   1_655  S
C995       C1264   1.434       .  S
C997       C1352   1.435       .  S
C998       C1205   1.433       .  S
O999      Ni1007   1.925       .  S
O999       C1009   1.282       .  A
O1000     Ni1007   1.926       .  S
O1000      C1010   1.282       .  A
O1001     Ni1007   1.910       .  S
O1001      C1011   1.277       .  A
O1002     Ni1007   1.908       .  S
O1002      C1012   1.277       .  A
O1003     Ni1008   1.925       .  S
O1003      C1012   1.282       .  A
O1004     Ni1008   1.926       .  S
O1004      C1011   1.282       .  A
O1005     Ni1008   1.910       .  S
O1005      C1010   1.278       .  A
O1006     Ni1008   1.909       .  S
O1006      C1009   1.277       .  A
Ni1007    Ni1008   2.394       .  S
C1009      C1249   1.434       .  S
C1010      C1200   1.435       .  S
C1011      C1220   1.435       .  S
C1012      C1208   1.433       .  S
O1013     Ni1021   1.925       .  S
O1013      C1023   1.282       .  A
O1014     Ni1021   1.926       .  S
O1014      C1024   1.282       .  A
O1015     Ni1021   1.910       .  S
O1015      C1025   1.278       .  A
O1016     Ni1021   1.908       .  S
O1016      C1026   1.277       .  A
O1017     Ni1022   1.925       .  S
O1017      C1026   1.282       .  A
O1018     Ni1022   1.926       .  S
O1018      C1025   1.282       .  A
O1019     Ni1022   1.910       .  S
O1019      C1024   1.278       .  A
O1020     Ni1022   1.909       .  S
O1020      C1023   1.277       .  A
Ni1021    Ni1022   2.394       .  S
C1023      C1237   1.434       .  S
C1024      C1201   1.435       .  S
C1025      C1189   1.436       .  S
C1026      C1193   1.434       .  S
O1027     Ni1035   1.925       .  S
O1027      C1037   1.282       .  A
O1028     Ni1035   1.926       .  S
O1028      C1038   1.282       .  A
O1029     Ni1035   1.910       .  S
O1029      C1039   1.278       .  A
O1030     Ni1035   1.909       .  S
O1031     Ni1036   1.925       .  S
O1031      C1040   1.282       .  A
O1032      C1039   1.282       .  A
O1033     Ni1036   1.910       .  S
O1034      C1037   1.277       .  A
C1037      C1233   1.434       .  S
C1039      C1388   1.436       .  S
C1040      C1196   1.434       .  S
O1041     Ni1049   1.925       .  S
O1041      C1051   1.282       .  A
O1042     Ni1049   1.926       .  S
O1042      C1052   1.282       .  A
O1043     Ni1049   1.908       .  S
O1043      C1053   1.277       .  A
O1044     Ni1049   1.910       .  S
O1044      C1054   1.278       .  A
O1045     Ni1050   1.926       .  S
O1045      C1054   1.282       .  A
O1046     Ni1050   1.925       .  S
O1046      C1053   1.282       .  A
O1047     Ni1050   1.910       .  S
O1047      C1052   1.278       .  A
O1048     Ni1050   1.909       .  S
O1048      C1051   1.277       .  A
Ni1049    Ni1050   2.394       .  S
C1051      C1348   1.434       .  S
C1052      C1181   1.435       .  S
C1053      C1188   1.433       .  S
C1054      C1192   1.436       .  S
O1055     Ni1063   1.925       .  S
O1056     Ni1063   1.924       .  S
O1056      C1066   1.282       .  A
O1057     Ni1063   1.910       .  S
O1057      C1067   1.277       .  A
O1058     Ni1063   1.908       .  S
O1058      C1068   1.277   1_655  A
O1059     Ni1064   1.926       .  S
O1060      C1067   1.282   1_455  A
O1061      C1066   1.277   1_455  A
O1062     Ni1064   1.910       .  S
O1062      C1065   1.277       .  A
C1065      C1301   1.435       .  S
C1066      C1185   1.433       .  S
C1067      C1180   1.435       .  S
O1069     Ni1077   1.926       .  S
O1069      C1079   1.282       .  A
O1070      C1080   1.282   1_455  A
O1071      C1081   1.277   1_455  A
O1072     Ni1077   1.910       .  S
O1072      C1082   1.277       .  A
O1073     Ni1078   1.926       .  S
O1074     Ni1078   1.925       .  S
O1074      C1081   1.282       .  A
O1075     Ni1078   1.910       .  S
O1075      C1080   1.277       .  A
O1076     Ni1078   1.908       .  S
C1079      C1324   1.434       .  S
C1080      C1184   1.435       .  S
C1081      C1176   1.433       .  S
C1082      C1244   1.435       .  S
O1083     Ni1091   1.925       .  S
O1083      C1093   1.282       .  A
O1084     Ni1091   1.926       .  S
O1084      C1094   1.282       .  A
O1085     Ni1091   1.908       .  S
O1085      C1095   1.277       .  A
O1086     Ni1091   1.911       .  S
O1086      C1096   1.278       .  A
O1087     Ni1092   1.926       .  S
O1087      C1096   1.282       .  A
O1088     Ni1092   1.925       .  S
O1088      C1095   1.282       .  A
O1089     Ni1092   1.910       .  S
O1089      C1094   1.278       .  A
O1090     Ni1092   1.909       .  S
O1090      C1093   1.277       .  A
Ni1091    Ni1092   2.394       .  S
C1093      C1316   1.434       .  S
C1094      C1177   1.436       .  S
C1095      C1173   1.433       .  S
C1096      C1169   1.436       .  S
O1097     Ni1105   1.925       .  S
O1097      C1107   1.282       .  A
O1098     Ni1105   1.926   1_554  S
O1098      C1108   1.282       .  A
O1099     Ni1105   1.910       .  S
O1099      C1109   1.277       .  A
O1100     Ni1105   1.908       .  S
O1100      C1110   1.277       .  A
O1101     Ni1106   1.925       .  S
O1101      C1110   1.282       .  A
O1102     Ni1106   1.926       .  S
O1102      C1109   1.282       .  A
O1103     Ni1106   1.910   1_554  S
O1103      C1108   1.278       .  A
O1104     Ni1106   1.909       .  S
O1104      C1107   1.277       .  A
Ni1105    Ni1106   2.394       .  S
C1107      C1280   1.434       .  S
C1108      C1164   1.435       .  S
C1109      C1209   1.435       .  S
C1110      C1168   1.433       .  S
O1111      C1121   1.282       .  A
O1112     Ni1119   1.924       .  S
O1112      C1122   1.282       .  A
O1113      C1123   1.277       .  A
O1114     Ni1119   1.910   1_554  S
O1114      C1124   1.277       .  A
O1115     Ni1120   1.926   1_554  S
O1116     Ni1120   1.925       .  S
O1116      C1123   1.282       .  A
O1117     Ni1120   1.908       .  S
O1118     Ni1120   1.910       .  S
O1118      C1121   1.277       .  A
C1121      C1317   1.435       .  S
C1122      C1165   1.433       .  S
C1123      C1276   1.434       .  S
C1124      C1157   1.435       .  S
O1125     Ni1133   1.926   1_655  S
O1125      C1135   1.282       .  A
O1127     Ni1133   1.908   1_655  S
O1127      C1137   1.277       .  A
O1128     Ni1133   1.910       .  S
O1128      C1138   1.277   1_455  A
O1129     Ni1134   1.926       .  S
O1129      C1138   1.282       .  A
O1130     Ni1134   1.925       .  S
O1130      C1137   1.282       .  A
O1131     Ni1134   1.909       .  S
O1131      C1136   1.277       .  A
O1132     Ni1134   1.910       .  S
O1132      C1135   1.278       .  A
Ni1133    Ni1134   2.394   1_455  S
C1135      C1376   1.436       .  S
C1136      C1156   1.434   1_655  S
C1137      C1289   1.434       .  S
C1138      C1161   1.435       .  S
O1139     Ni1147   1.925       .  S
O1139      C1149   1.282       .  A
O1140     Ni1147   1.926       .  S
O1140      C1150   1.282       .  A
O1141     Ni1147   1.911       .  S
O1141      C1151   1.278       .  A
O1142     Ni1147   1.909       .  S
O1142      C1152   1.277       .  A
O1143     Ni1148   1.925       .  S
O1143      C1152   1.282       .  A
O1144     Ni1148   1.926       .  S
O1144      C1151   1.282       .  A
O1145     Ni1148   1.910       .  S
O1145      C1150   1.278       .  A
O1146     Ni1148   1.909       .  S
O1146      C1149   1.277       .  A
Ni1147    Ni1148   2.394       .  S
C1149      C1297   1.434       .  S
C1150      C1160   1.435       .  S
C1151      C1172   1.436       .  S
C1152      C1153   1.434       .  S
C1153      C1154   1.205       .  T
C1154      C1155   1.411       .  S
C1157      C1158   1.206       .  T
C1158      C1159   1.413       .  S
C1159      C1160   1.206       .  T
C1162      C1163   1.413       .  S
C1163      C1164   1.206       .  T
C1165      C1166   1.205       .  T
C1166      C1167   1.410       .  S
C1167      C1168   1.205       .  T
C1169      C1170   1.206       .  T
C1170      C1171   1.413       .  S
C1171      C1172   1.206       .  T
C1173      C1174   1.205       .  T
C1174      C1175   1.411       .  S
C1175      C1176   1.205       .  T
C1177      C1178   1.206       .  T
C1178      C1179   1.413       .  S
C1179      C1180   1.206       .  T
C1181      C1182   1.206       .  T
C1182      C1183   1.413       .  S
C1183      C1184   1.206       .  T
C1185      C1186   1.205       .  T
C1186      C1187   1.410       .  S
C1187      C1188   1.205       .  T
C1189      C1190   1.206       .  T
C1190      C1191   1.413       .  S
C1191      C1192   1.206       .  T
C1193      C1194   1.205       .  T
C1194      C1195   1.411       .  S
C1195      C1196   1.205       .  T
C1197      C1198   1.206       .  T
C1198      C1199   1.413       .  S
C1199      C1200   1.206       .  T
C1201      C1202   1.206       .  T
C1202      C1203   1.413       .  S
C1203      C1204   1.206       .  T
C1205      C1206   1.205       .  T
C1206      C1207   1.410       .  S
C1207      C1208   1.204       .  T
C1209      C1210   1.206       .  T
C1210      C1211   1.413   1_545  S
C1211      C1212   1.206       .  T
C1213      C1214   1.205       .  T
C1214      C1215   1.411       .  S
C1215      C1216   1.205       .  T
C1217      C1218   1.206       .  T
C1218      C1219   1.412       .  S
C1219      C1220   1.206       .  T
C1221      C1222   1.206       .  T
C1222      C1223   1.413       .  S
C1223      C1224   1.206       .  T
C1225      C1226   1.206       .  T
C1226      C1227   1.413       .  S
C1227      C1228   1.206       .  T
C1229      C1230   1.205       .  T
C1230      C1231   1.411       .  S
C1231      C1232   1.205       .  T
C1233      C1234   1.205       .  T
C1234      C1235   1.411       .  S
C1235      C1236   1.205       .  T
C1237      C1238   1.205       .  T
C1238      C1239   1.411       .  S
C1239      C1240   1.205       .  T
C1241      C1242   1.206       .  T
C1242      C1243   1.412       .  S
C1243      C1244   1.206       .  T
C1245      C1246   1.204       .  T
C1246      C1247   1.410       .  S
C1247      C1248   1.205       .  T
C1249      C1250   1.205       .  T
C1250      C1251   1.411       .  S
C1251      C1252   1.205       .  T
C1253      C1254   1.206       .  T
C1254      C1255   1.413       .  S
C1255      C1256   1.206       .  T
C1257      C1258   1.206       .  T
C1258      C1259   1.413       .  S
C1259      C1260   1.206       .  T
C1261      C1262   1.205       .  T
C1262      C1263   1.411       .  S
C1263      C1264   1.205       .  T
C1265      C1266   1.206       .  T
C1266      C1267   1.413       .  S
C1267      C1268   1.206       .  T
C1269      C1270   1.205       .  T
C1270      C1271   1.411       .  S
C1271      C1272   1.205       .  T
C1273      C1274   1.205       .  T
C1274      C1275   1.411       .  S
C1275      C1276   1.205       .  T
C1277      C1278   1.205       .  T
C1278      C1279   1.411       .  S
C1279      C1280   1.205       .  T
C1281      C1282   1.206       .  T
C1282      C1283   1.413   1_545  S
C1283      C1284   1.206       .  T
C1285      C1286   1.205       .  T
C1286      C1287   1.411       .  S
C1287      C1288   1.205       .  T
C1289      C1290   1.205       .  T
C1290      C1291   1.411       .  S
C1291      C1292   1.205       .  T
C1293      C1294   1.206       .  T
C1294      C1295   1.413       .  S
C1295      C1296   1.206       .  T
C1297      C1298   1.205       .  T
C1298      C1299   1.411       .  S
C1299      C1300   1.205       .  T
C1301      C1302   1.206       .  T
C1302      C1303   1.412       .  S
C1303      C1304   1.206       .  T
C1305      C1306   1.206       .  T
C1306      C1307   1.413       .  S
C1307      C1308   1.206       .  T
C1309      C1310   1.204       .  T
C1310      C1311   1.410       .  S
C1311      C1312   1.204       .  T
C1313      C1314   1.205       .  T
C1314      C1315   1.411       .  S
C1315      C1316   1.205       .  T
C1317      C1318   1.206       .  T
C1318      C1319   1.412       .  S
C1319      C1320   1.206       .  T
C1321      C1322   1.205       .  T
C1322      C1323   1.411       .  S
C1323      C1324   1.205       .  T
C1325      C1326   1.206       .  T
C1326      C1327   1.413       .  S
C1329      C1330   1.205       .  T
C1330      C1331   1.410       .  S
C1331      C1332   1.205       .  T
C1333      C1334   1.205       .  T
C1334      C1335   1.411       .  S
C1335      C1336   1.205       .  T
C1338      C1339   1.413       .  S
C1339      C1340   1.206       .  T
C1341      C1342   1.206       .  T
C1342      C1343   1.413       .  S
C1343      C1344   1.206       .  T
C1345      C1346   1.205       .  T
C1346      C1347   1.411       .  S
C1347      C1348   1.205       .  T
C1349      C1350   1.206       .  T
C1350      C1351   1.412       .  S
C1351      C1352   1.206       .  T
C1353      C1354   1.206       .  T
C1354      C1355   1.413       .  S
C1355      C1356   1.206       .  T
C1357      C1358   1.205       .  T
C1358      C1359   1.411       .  S
C1359      C1360   1.205       .  T
C1361      C1362   1.205       .  T
C1362      C1363   1.411       .  S
C1363      C1364   1.205       .  T
C1365      C1366   1.206       .  T
C1367      C1368   1.206       .  T
C1369      C1370   1.205       .  T
C1370      C1371   1.411       .  S
C1371      C1372   1.205       .  T
C1373      C1374   1.206       .  T
C1374      C1375   1.413   1_565  S
C1375      C1376   1.206       .  T
C1377      C1378   1.205       .  T
C1378      C1379   1.411       .  S
C1379      C1380   1.205       .  T
C1381      C1382   1.205       .  T
C1382      C1383   1.411       .  S
C1383      C1384   1.205       .  T
C1385      C1386   1.206       .  T
C1386      C1387   1.413       .  S
C1387      C1388   1.206       .  T
C1389      C1390   1.206       .  T
C1390      C1391   1.413       .  S
C1391      C1392   1.206       .  T
C1393      C1394   1.205       .  T
C1394      C1395   1.411       .  S
C1395      C1396   1.205       .  T
C1397      C1398   1.206       .  T
C1398      C1399   1.413   1_545  S
C1401      C1402   1.206       .  T
C1402      C1403   1.413       .  S
C1403      C1404   1.206       .  T
C1405      C1406   1.205       .  T
C1406      C1407   1.411       .  S
C1407      C1408   1.205       .  T
