geometry optimzed in LAMMPS
_audit_creation_date              2020-12-01 
_audit_creation_method            'lammps2cif' 
_symmetry_space_group_name_H-M    'P1' 
_symmetry_Int_Tables_number       1 
_symmetry_cell_setting            triclinic 
loop_ 
_symmetry_equiv_pos_as_xyz 
  x,y,z 
_cell_length_a                    38.87680578 
_cell_length_b                    74.19884768606647 
_cell_length_c                    38.02628871229684 
_cell_angle_alpha                 90.067659119372 
_cell_angle_beta                  89.74912904790408 
_cell_angle_gamma                 90.13188775205235 
loop_ 
_atom_site_label 
_atom_site_type_symbol 
_atom_site_fract_x 
_atom_site_fract_y 
_atom_site_fract_z 
_atom_site_charge 
Zr1        Zr  0.18387828  0.84874190  0.43055238     2.17500
O2          O  0.13680329  0.84010704  0.39162573    -0.51600
O3          O  0.17725685  0.81658372  0.44342048    -0.74800
O4          O  0.20162062  0.84424005  0.36901270    -0.81600
O5          O  0.12383268  0.86956707  0.49971352    -0.83400
O6          O  0.25931373  0.84873134  0.36444243    -0.79000
O7          O  0.12442491  0.85697849  0.44513342    -0.90600
O8          O  0.21390778  0.80836919  0.48665324    -0.76600
O9          O  0.24147199  0.83872143  0.43853211    -0.86100
O10         O  0.19066340  0.84439860  0.49243448    -0.85800
O11         O  0.21990705  0.87264527  0.40770616    -0.72500
O12         O  0.17398453  0.87735799  0.45818401    -0.84700
Zr13       Zr  0.27449254  0.88797053  0.50520349     2.26400
Zr14       Zr  0.27774482  0.86274271  0.41817666     2.06300
Zr15       Zr  0.18206353  0.87300207  0.52013387     2.10000
Zr16       Zr  0.24846491  0.83477992  0.50003391     1.78800
O17         O  0.15032586  0.89897354  0.54217428    -0.93500
O18         O  0.28968975  0.81360177  0.47500649    -0.41300
O19         O  0.23988236  0.86352131  0.52714841    -0.77900
O20         O  0.28569098  0.85854812  0.47991151    -0.96600
O21         O  0.26807391  0.89195226  0.44351959    -0.89900
O22         O  0.21630306  0.89718160  0.49795739    -0.92700
C23         C  0.18962467  0.80492242  0.46489387     1.01000
C24         C  0.10885064  0.86412922  0.47164811     1.14000
C25         C  0.23004197  0.84455202  0.35152393     1.04700
O26         O  0.31486473  0.83699697  0.40669105    -0.94900
O27         O  0.33622340  0.87128366  0.43165316    -0.90600
O28         O  0.33396033  0.88495651  0.48501271    -0.83800
C29         C  0.35044118  0.87872994  0.45831069     1.11400
O30         O  0.17421616  0.90619147  0.38442136    -0.96900
Zr31       Zr  0.20985850  0.90088506  0.43591684     1.88900
O32         O  0.26920145  0.92122732  0.50353416    -0.73500
O33         O  0.30093648  0.88059012  0.36971991    -0.52800
O34         O  0.24111154  0.91618846  0.38899349    -0.97400
O35         O  0.15795281  0.91828977  0.44747082    -0.54700
O36         O  0.23078360  0.92835221  0.46123151    -0.74000
C37         C  0.25118591  0.93270747  0.48609634     0.98300
O38         O  0.31723521  0.89967156  0.54629634    -0.62800
O39         O  0.15251171  0.85300133  0.56113842    -0.57600
O40         O  0.26404873  0.88449800  0.56779240    -0.94300
O41         O  0.20763269  0.87868335  0.57811988    -0.92800
O42         O  0.22848421  0.82297000  0.55625805    -0.93100
O43         O  0.29432075  0.82900410  0.54193107    -0.91900
C44         C  0.23861646  0.88160058  0.58867403     1.17200
H45         H  0.17424446  0.83583794  0.50170306     0.33100
H46         H  0.30870556  0.85448447  0.48495050     0.44000
H47         H  0.21047289  0.90782638  0.51129162     0.37500
H48         H  0.21620447  0.87489247  0.38302046     0.34000
H49         H  0.28754470  0.80268096  0.48980006     0.25800
H50         H  0.31926121  0.87299708  0.35930517     0.31700
H51         H  0.24844280  0.90644162  0.37286502     0.37600
H52         H  0.22920328  0.83341638  0.57246851     0.32100
H53         H  0.17090661  0.84785705  0.57594594     0.30900
H54         H  0.14592869  0.89628975  0.56729218     0.32600
H55         H  0.16313769  0.93051879  0.43844983     0.31600
H56         H  0.30103938  0.84110358  0.55056712     0.35600
H57         H  0.33356594  0.88969533  0.55059587     0.28300
H58         H  0.14391594  0.82867052  0.38030563     0.32500
H59         H  0.16174699  0.89470232  0.38069514     0.35400
H60         H  0.13969361  0.86115700  0.57708462     0.28000
H61         H  0.33064264  0.90885609  0.53320077     0.40900
H62         H  0.32758823  0.84019284  0.38495302     0.30900
H63         H  0.27981076  0.80997459  0.45210126     0.38600
H64         H  0.15732870  0.91974285  0.47334979     0.30400
H65         H  0.28265619  0.88078990  0.35168707     0.30500
H66         H  0.13666722  0.84913433  0.37246094     0.30700
Zr67       Zr  0.68467475  0.86539927  0.42525056     2.17500
O68         O  0.63881280  0.87163510  0.38338111    -0.51600
O69         O  0.67248377  0.83333079  0.41762763    -0.74800
O70         O  0.70467694  0.86720401  0.36372210    -0.81600
O71         O  0.62280475  0.87396584  0.50249701    -0.83400
O72         O  0.76109544  0.87482715  0.36559807    -0.79000
O73         O  0.62510142  0.86831507  0.44369799    -0.90600
O74         O  0.71018481  0.81741980  0.45060518    -0.76600
O75         O  0.74116971  0.85313394  0.42783704    -0.86100
O76         O  0.68871410  0.85115338  0.48141572    -0.85800
O77         O  0.72263595  0.89087598  0.41953665    -0.72500
O78         O  0.67543584  0.88839624  0.46884352    -0.84700
Zr79       Zr  0.77579682  0.88797528  0.52215702     2.26400
Zr80       Zr  0.77930408  0.87851815  0.42486665     2.06300
Zr81       Zr  0.68110729  0.87411887  0.52499465     2.10000
Zr82       Zr  0.74511166  0.83904199  0.48366776     1.78800
O83         O  0.65096148  0.89611310  0.56129203    -0.93500
O84         O  0.78834002  0.82162403  0.45196794    -0.41300
O85         O  0.73785689  0.86233273  0.52666855    -0.77900
O86         O  0.78510600  0.86384204  0.48029138    -0.96600
O87         O  0.77121339  0.90225747  0.46660799    -0.89900
O88         O  0.71857449  0.89958557  0.52002582    -0.92700
C89         C  0.68450326  0.81841573  0.42947016     1.01000
C90         C  0.60867647  0.87155597  0.47237816     1.14000
C91         C  0.73353563  0.87119810  0.34885158     1.04700
O92         O  0.81673041  0.85661219  0.39631538    -0.94900
O93         O  0.83784513  0.88242155  0.44365697    -0.90600
O94         O  0.83623762  0.88696809  0.50250943    -0.83800
C95         C  0.85262669  0.88484584  0.47329369     1.11400
O96         O  0.67709140  0.92747545  0.41989064    -0.96900
Zr97       Zr  0.71388846  0.91337013  0.46355639     1.88900
O98         O  0.77446246  0.92031157  0.53910857    -0.73500
O99         O  0.80242399  0.90379886  0.39132571    -0.52800
O100        O  0.74730177  0.93350542  0.42603831    -0.97400
O101        O  0.66531800  0.93008221  0.48772674    -0.54700
O102        O  0.73895141  0.93528987  0.50198745    -0.74000
C103        C  0.75955343  0.93473767  0.52796781     0.98300
O104        O  0.81631822  0.89044078  0.57080659    -0.62800
O105        O  0.64994001  0.84929101  0.55248072    -0.57600
O106        O  0.76279078  0.87478136  0.57885792    -0.94300
O107        O  0.70514890  0.87034131  0.58397367    -0.92800
O108        O  0.72038547  0.81933567  0.52842368    -0.93100
O109        O  0.78597735  0.82569035  0.52432755    -0.91900
C110        C  0.73590983  0.87021678  0.59637392     1.17200
H111        H  0.67132380  0.84196448  0.48449951     0.33100
H112        H  0.80765290  0.85860028  0.48284660     0.44000
H113        H  0.71369972  0.90783854  0.53904720     0.37500
H114        H  0.71962597  0.89667175  0.39704714     0.34000
H115        H  0.78284542  0.80890186  0.45753584     0.25800
H116        H  0.81384653  0.91161270  0.40890335     0.31700
H117        H  0.74589956  0.92817798  0.40220548     0.37600
H118        H  0.69978372  0.81384764  0.51753059     0.32100
H119        H  0.66774055  0.84203806  0.56443656     0.30900
H120        H  0.63874105  0.90390341  0.54435518     0.32600
H121        H  0.67017265  0.93119784  0.51317395     0.31600
H122        H  0.78995497  0.83517395  0.54222032     0.35600
H123        H  0.83092687  0.87954329  0.56942276     0.28300
H124        H  0.63922030  0.86156234  0.36627787     0.32500
H125        H  0.65939812  0.91825260  0.41460903     0.35400
H126        H  0.63668578  0.85496873  0.57181435     0.28000
H127        H  0.83181506  0.90060628  0.56484113     0.40900
H128        H  0.82879663  0.86347209  0.37763189     0.30900
H129        H  0.78225239  0.82293144  0.42684844     0.38600
H130        H  0.64564088  0.92161234  0.48646830     0.30400
H131        H  0.82155587  0.89862372  0.37735002     0.30500
H132        H  0.64629958  0.88239476  0.36996740     0.30700
Zr133      Zr  0.22175652  0.11037084  0.52063249     2.17500
O134        O  0.17343361  0.10123858  0.48382928    -0.51600
O135        O  0.22586377  0.07723035  0.52558392    -0.74800
O136        O  0.23757663  0.10709297  0.45860332    -0.81600
O137        O  0.15898917  0.13178126  0.58638141    -0.83400
O138        O  0.29524616  0.11097237  0.45277777    -0.79000
O139        O  0.16154607  0.11548545  0.53595477    -0.90600
O140        O  0.25563979  0.06946697  0.57424395    -0.76600
O141        O  0.27771747  0.09952330  0.53288838    -0.86100
O142        O  0.22436523  0.10715883  0.58302294    -0.85800
O143        O  0.25888605  0.13396768  0.49843529    -0.72500
O144        O  0.21220079  0.14003324  0.54508381    -0.84700
Zr145      Zr  0.31259098  0.14759123  0.59864404     2.26400
Zr146      Zr  0.31512307  0.12245487  0.51014028     2.06300
Zr147      Zr  0.21667787  0.13676189  0.60716560     2.10000
Zr148      Zr  0.28067283  0.09672998  0.59547400     1.78800
O149        O  0.18444080  0.16420984  0.61924587    -0.93500
O150        O  0.32772177  0.07570289  0.58518172    -0.41300
O151        O  0.27260185  0.12569791  0.62101827    -0.77900
O152        O  0.32037941  0.11811329  0.57290156    -0.96600
O153        O  0.30814591  0.15163574  0.53645324    -0.89900
O154        O  0.25649328  0.15926537  0.58766780    -0.92700
C155        C  0.23873618  0.06545574  0.54666803     1.01000
C156        C  0.14483784  0.12367285  0.56043924     1.14000
C157        C  0.26529993  0.10737084  0.44002292     1.04700
O158        O  0.35094749  0.09739122  0.49106156    -0.94900
O159        O  0.37375748  0.12684579  0.52950544    -0.90600
O160        O  0.37255909  0.14063859  0.58300787    -0.83800
C161        C  0.38849454  0.13309583  0.55713009     1.11400
O162        O  0.20311307  0.16955540  0.48794489    -0.96900
Zr163      Zr  0.25181627  0.16277008  0.52576566     1.88900
O164        O  0.32365058  0.17920028  0.58439899    -0.73500
O165        O  0.33902869  0.14347892  0.46730105    -0.52800
O166        O  0.27184989  0.17204455  0.46774637    -0.97400
O167        O  0.21545638  0.18771975  0.54507403    -0.54700
O168        O  0.29150358  0.18718338  0.53747591    -0.74000
C169        C  0.31447796  0.19051825  0.56065510     0.98300
O170        O  0.35302981  0.15441003  0.64578068    -0.62800
O171        O  0.18723346  0.12003442  0.65354353    -0.57600
O172        O  0.29360323  0.15208147  0.66034956    -0.94300
O173        O  0.23564139  0.14809536  0.66311432    -0.92800
O174        O  0.24942695  0.08438503  0.64562754    -0.93100
O175        O  0.31854943  0.09390198  0.64603523    -0.91900
C176        C  0.26459707  0.15205782  0.67711183     1.17200
H177        H  0.20704287  0.09884670  0.59138820     0.33100
H178        H  0.34201717  0.11267241  0.57900897     0.44000
H179        H  0.25319125  0.17045571  0.60020054     0.37500
H180        H  0.25564957  0.13651078  0.47382312     0.34000
H181        H  0.32169165  0.06489785  0.59919668     0.25800
H182        H  0.35461524  0.15141297  0.48087518     0.31700
H183        H  0.26502765  0.18485575  0.46582090     0.37600
H184        H  0.25744143  0.07176340  0.64746131     0.32100
H185        H  0.17299283  0.11092378  0.64130316     0.30900
H186        H  0.16452018  0.16021327  0.63358129     0.32600
H187        H  0.22021697  0.19751670  0.52805066     0.31600
H188        H  0.33555740  0.10375876  0.64325072     0.35600
H189        H  0.36598172  0.14313998  0.64996752     0.28300
H190        H  0.18065706  0.08988369  0.47227129     0.32500
H191        H  0.19823112  0.15809319  0.47555663     0.35400
H192        H  0.20559123  0.11296323  0.66501426     0.28000
H193        H  0.37000438  0.16291543  0.63558054     0.40900
H194        H  0.33884439  0.08651235  0.49976301     0.30900
H195        H  0.32501625  0.07181280  0.56043085     0.38600
H196        H  0.22558083  0.19214969  0.56729527     0.30400
H197        H  0.35457930  0.13605559  0.45257763     0.30500
H198        H  0.17224781  0.11021828  0.46461753     0.30700
Zr199      Zr  0.80999671  0.15005091  0.51790763     2.17500
O200        O  0.85637864  0.15733178  0.47680837    -0.51600
O201        O  0.81696926  0.18199336  0.53133175    -0.74800
O202        O  0.79013609  0.15613399  0.45764800    -0.81600
O203        O  0.87247948  0.12976911  0.58426435    -0.83400
O204        O  0.73297854  0.14998817  0.45438126    -0.79000
O205        O  0.87003410  0.14235514  0.52992147    -0.90600
O206        O  0.78121592  0.18992634  0.57591075    -0.76600
O207        O  0.75235094  0.15955212  0.52828314    -0.86100
O208        O  0.80489716  0.15430359  0.58016677    -0.85800
O209        O  0.77432781  0.12596875  0.49582951    -0.72500
O210        O  0.82166406  0.12167088  0.54516018    -0.84700
Zr211      Zr  0.72293729  0.10982600  0.59509284     2.26400
Zr212      Zr  0.71646195  0.13526829  0.50856352     2.06300
Zr213      Zr  0.81495347  0.12576586  0.60736078     2.10000
Zr214      Zr  0.74709452  0.16335143  0.59015555     1.78800
O215        O  0.84853504  0.10028435  0.62826292    -0.93500
O216        O  0.70552279  0.18501442  0.56779384    -0.41300
O217        O  0.75684079  0.13460218  0.61705963    -0.77900
O218        O  0.71035281  0.13926712  0.57068159    -0.96600
O219        O  0.72832533  0.10619739  0.53313373    -0.89900
O220        O  0.78124649  0.10118593  0.58595636    -0.92700
C221        C  0.80493214  0.19352450  0.55335574     1.01000
C222        C  0.88666404  0.13539855  0.55574866     1.14000
C223        C  0.76138509  0.15552567  0.44097162     1.04700
O224        O  0.67616301  0.15965999  0.49729821    -0.94900
O225        O  0.65873170  0.12620339  0.52552911    -0.90600
O226        O  0.66260921  0.11247494  0.57854332    -0.83800
C227        C  0.64516620  0.11867240  0.55265516     1.11400
O228        O  0.82020469  0.09272381  0.47023112    -0.96900
Zr229      Zr  0.78670681  0.09781846  0.52362913     1.88900
O230        O  0.72817050  0.07651992  0.59078307    -0.73500
O231        O  0.69415338  0.11670967  0.46090107    -0.52800
O232        O  0.75568524  0.08058031  0.47940488    -0.97400
O233        O  0.84190711  0.08318248  0.53313101    -0.54700
O234        O  0.76908963  0.06998593  0.55001905    -0.74000
C235        C  0.74728885  0.06535583  0.57354691     0.98300
O236        O  0.67726611  0.09699208  0.63142429    -0.62800
O237        O  0.84535412  0.14592099  0.64734337    -0.57600
O238        O  0.73501246  0.11204663  0.65786367    -0.94300
O239        O  0.79116158  0.11897884  0.66582276    -0.92800
O240        O  0.76832953  0.17378844  0.64683358    -0.93100
O241        O  0.70104039  0.16973446  0.63196615    -0.91900
C242        C  0.76105320  0.11491407  0.67777226     1.17200
H243        H  0.82136610  0.16293432  0.58899153     0.33100
H244        H  0.68738335  0.14313218  0.57670807     0.44000
H245        H  0.78761953  0.09057385  0.59904239     0.37500
H246        H  0.77743460  0.12416038  0.47088028     0.34000
H247        H  0.70744577  0.19556272  0.58364834     0.25800
H248        H  0.67535879  0.12396477  0.45063966     0.31700
H249        H  0.74506943  0.08977102  0.46408906     0.37600
H250        H  0.76559507  0.16333757  0.66278784     0.32100
H251        H  0.82916933  0.14817998  0.66701542     0.30900
H252        H  0.85366745  0.10313160  0.65313760     0.32600
H253        H  0.83720231  0.07014604  0.53022909     0.31600
H254        H  0.69742367  0.15822438  0.64462284     0.35600
H255        H  0.68841169  0.08788414  0.64656145     0.28300
H256        H  0.85029573  0.16904989  0.46609292     0.32500
H257        H  0.82759844  0.10486241  0.46245390     0.35400
H258        H  0.86372008  0.13840761  0.65769878     0.28000
H259        H  0.67001826  0.10675572  0.64758074     0.40900
H260        H  0.69060404  0.17061158  0.49511357     0.30900
H261        H  0.71540656  0.18928304  0.54524786     0.38600
H262        H  0.84636847  0.08468694  0.55857815     0.30400
H263        H  0.71240556  0.11674364  0.44266457     0.30500
H264        H  0.85463196  0.14840566  0.45750823     0.30700
Zr265      Zr  0.22932251  0.88514893  0.02150366     2.17500
O266        O  0.17979272  0.88869812  0.06061183    -0.51600
O267        O  0.23153928  0.91690031  0.04135979    -0.74800
O268        O  0.24095829  0.87462440  0.08099862    -0.81600
O269        O  0.17101159  0.87877045  0.94040472    -0.83400
O270        O  0.29770653  0.86781266  0.08595467    -0.79000
O271        O  0.17047316  0.88127018  0.99984336    -0.90600
O272        O  0.27694784  0.93049656  0.01457573    -0.76600
O273        O  0.28699880  0.89585103  0.02242017    -0.86100
O274        O  0.23778110  0.90105459  0.96759162    -0.85800
O275        O  0.26400969  0.85815321  0.02549373    -0.72500
O276        O  0.22047482  0.86334398  0.97541998    -0.84700
Zr277      Zr  0.32463045  0.86344027  0.92740056     2.26400
Zr278      Zr  0.32191836  0.86953133  0.02688891     2.06300
Zr279      Zr  0.23064935  0.87915590  0.92186973     2.10000
Zr280      Zr  0.29602792  0.91106975  0.96804013     1.78800
O281        O  0.19105535  0.86322602  0.88321094    -0.93500
O282        O  0.34702843  0.92588256  0.99153216    -0.41300
O283        O  0.28875880  0.88971792  0.92147768    -0.77900
O284        O  0.33292159  0.88561286  0.97302623    -0.96600
O285        O  0.31449040  0.84767394  0.98102893    -0.89900
O286        O  0.26657595  0.85296032  0.92503635    -0.92700
C287        C  0.25233151  0.93026390  0.03689091     1.01000
C288        C  0.15526120  0.87918526  0.97009791     1.14000
C289        C  0.26717507  0.86935298  0.09865220     1.04700
O290        O  0.35065466  0.89192177  0.06335996    -0.94900
O291        O  0.38179822  0.86628642  0.01004144    -0.90600
O292        O  0.38363896  0.86312504  0.95060194    -0.83800
C293        C  0.39821996  0.86456669  0.98088541     1.11400
O294        O  0.20535405  0.82327523  0.00322870    -0.96900
Zr295      Zr  0.25661602  0.83734579  0.97842588     1.88900
O296        O  0.33374638  0.83108449  0.91830287    -0.73500
O297        O  0.34874528  0.84404292  0.05621471    -0.52800
O298        O  0.26778556  0.81695590  0.02723641    -0.97400
O299        O  0.22115759  0.82052857  0.93696134    -0.54700
O300        O  0.29711775  0.81599199  0.95440485    -0.74000
C301        C  0.32220156  0.81654456  0.93251911     0.98300
O302        O  0.36764221  0.86921927  0.88187018    -0.62800
O303        O  0.21454433  0.90792002  0.89602078    -0.57600
O304        O  0.30932778  0.86735391  0.86532151    -0.94300
O305        O  0.25254418  0.87475947  0.86311293    -0.92800
O306        O  0.26539035  0.93522859  0.93827307    -0.93100
O307        O  0.33183323  0.92477045  0.92259150    -0.91900
C308        C  0.28143902  0.87099557  0.84864709     1.17200
H309        H  0.22169204  0.91089758  0.96556268     0.33100
H310        H  0.35579220  0.89065694  0.97241928     0.44000
H311        H  0.26325299  0.84517553  0.90495717     0.37500
H312        H  0.25862440  0.85064991  0.04541956     0.34000
H313        H  0.34143632  0.93889718  0.99146079     0.25800
H314        H  0.36098601  0.84940277  0.07649144     0.31700
H315        H  0.29315013  0.81591821  0.02805662     0.37600
H316        H  0.26538144  0.93177476  0.91312515     0.32100
H317        H  0.23007689  0.90934822  0.87550547     0.30900
H318        H  0.18240635  0.87251426  0.86681326     0.32600
H319        H  0.23737151  0.81551016  0.91937205     0.31600
H320        H  0.35135896  0.91635114  0.91960911     0.35600
H321        H  0.38086089  0.87981683  0.89015266     0.28300
H322        H  0.18793850  0.89614578  0.08054937     0.32500
H323        H  0.19320081  0.83319658  0.01546250     0.35400
H324        H  0.19158405  0.90575531  0.88566819     0.28000
H325        H  0.38392465  0.85899276  0.88299985     0.40900
H326        H  0.37064016  0.89600703  0.04925656     0.30900
H327        H  0.34725581  0.92256590  0.01673121     0.38600
H328        H  0.20805959  0.82981505  0.92403309     0.30400
H329        H  0.32945054  0.83719223  0.06682519     0.30500
H330        H  0.17552489  0.87662785  0.07086947     0.30700
Zr331      Zr  0.73484484  0.88928425  0.00991969     2.17500
O332        O  0.68733433  0.89916089  0.04742304    -0.51600
O333        O  0.74108832  0.92250522  0.00805902    -0.74800
O334        O  0.75047766  0.88988239  0.07158204    -0.81600
O335        O  0.66940694  0.87370697  0.94082213    -0.83400
O336        O  0.80598160  0.88103025  0.07767101    -0.79000
O337        O  0.67428445  0.88447644  0.99651584    -0.90600
O338        O  0.77921072  0.92944715  0.96509304    -0.76600
O339        O  0.79314548  0.89751096  0.00028680    -0.86100
O340        O  0.73985297  0.89451146  0.94831706    -0.85800
O341        O  0.76730219  0.86326846  0.02899568    -0.72500
O342        O  0.72044777  0.86113415  0.98192430    -0.84700
Zr343      Zr  0.82006150  0.84950652  0.92922689     2.26400
Zr344      Zr  0.82579829  0.87207375  0.01932913     2.06300
Zr345      Zr  0.72690430  0.86625738  0.92063418     2.10000
Zr346      Zr  0.79855902  0.90206322  0.93843916     1.78800
O347        O  0.68709175  0.84193198  0.90663022    -0.93500
O348        O  0.84926048  0.91985216  0.95339749    -0.41300
O349        O  0.78553658  0.87436117  0.90928071    -0.77900
O350        O  0.83354900  0.87776794  0.95751772    -0.96600
O351        O  0.81329668  0.84402118  0.99068932    -0.89900
O352        O  0.76133829  0.84104262  0.93798408    -0.92700
C353        C  0.75923723  0.93392837  0.99034223     1.01000
C354        C  0.65649526  0.87915278  0.97007860     1.14000
C355        C  0.77687130  0.88619101  0.09029357     1.04700
O356        O  0.86250923  0.89752752  0.03442153    -0.94900
O357        O  0.88289798  0.86300027  0.00154296    -0.90600
O358        O  0.88123641  0.85310727  0.94510880    -0.83800
C359        C  0.89764804  0.85805602  0.97292910     1.11400
O360        O  0.70889539  0.83278408  0.04286318    -0.96900
Zr361      Zr  0.75458357  0.83585007  0.99919837     1.88900
O362        O  0.82272933  0.81694832  0.93961596    -0.73500
O363        O  0.84967435  0.85298608  0.06524301    -0.52800
O364        O  0.77376111  0.82159224  0.05332362    -0.97400
O365        O  0.70963235  0.81602840  0.97667337    -0.54700
O366        O  0.78603011  0.80893389  0.98340844    -0.74000
C367        C  0.80940131  0.80528311  0.96067865     0.98300
O368        O  0.85935110  0.84063845  0.88206557    -0.62800
O369        O  0.70555972  0.88611324  0.87465580    -0.57600
O370        O  0.80151333  0.84761262  0.86759494    -0.94300
O371        O  0.74440803  0.85401040  0.86488665    -0.92800
O372        O  0.77013554  0.91786930  0.89062723    -0.93100
O373        O  0.83857885  0.90639663  0.88970314    -0.91900
C374        C  0.77283825  0.84899720  0.85093098     1.17200
H375        H  0.72454354  0.90398558  0.94083471     0.33100
H376        H  0.85643727  0.88206697  0.95235291     0.44000
H377        H  0.75574973  0.83045887  0.92432026     0.37500
H378        H  0.76278849  0.85987874  0.05304088     0.34000
H379        H  0.84519225  0.93187035  0.94292642     0.25800
H380        H  0.85657159  0.84173471  0.05312275     0.31700
H381        H  0.79915124  0.82122851  0.05130547     0.37600
H382        H  0.77074968  0.90933101  0.87060427     0.32100
H383        H  0.68754661  0.87898337  0.86261553     0.30900
H384        H  0.67444852  0.84620771  0.88570500     0.32600
H385        H  0.70659089  0.80670227  0.99503701     0.31600
H386        H  0.84324207  0.89407607  0.88088616     0.35600
H387        H  0.87403866  0.85131115  0.87747931     0.28300
H388        H  0.69570434  0.91011649  0.05959544     0.32500
H389        H  0.69807491  0.84484541  0.04398978     0.35400
H390        H  0.69274055  0.89570347  0.88716352     0.28000
H391        H  0.87493243  0.83155236  0.89241285     0.40900
H392        H  0.87371762  0.89395517  0.05666992     0.30900
H393        H  0.84742668  0.92187594  0.97908030     0.38600
H394        H  0.72032368  0.80947571  0.95676262     0.30400
H395        H  0.87163154  0.85883369  0.07188314     0.30500
H396        H  0.68505896  0.88994614  0.06613442     0.30700
Zr397      Zr  0.27520448  0.10559712  0.09297070     2.17500
O398        O  0.32409949  0.09524596  0.12755988    -0.51600
O399        O  0.27380780  0.07240691  0.08695174    -0.74800
O400        O  0.26098918  0.10272455  0.15528249    -0.81600
O401        O  0.33820701  0.12565765  0.02461372    -0.83400
O402        O  0.20343688  0.10650120  0.16192711    -0.79000
O403        O  0.33456176  0.11276018  0.07851217    -0.90600
O404        O  0.24204542  0.06485957  0.03928318    -0.76600
O405        O  0.21914502  0.09442795  0.08174742    -0.86100
O406        O  0.27177443  0.10229904  0.03062826    -0.85800
O407        O  0.23824455  0.12916951  0.11554701    -0.72500
O408        O  0.28494053  0.13523279  0.06859388    -0.84700
Zr409      Zr  0.18492121  0.14274328  0.01611824     2.26400
Zr410      Zr  0.18203259  0.11733291  0.10461203     2.06300
Zr411      Zr  0.28007667  0.13186319  0.00653067     2.10000
Zr412      Zr  0.21500709  0.09180975  0.01924390     1.78800
O413        O  0.31584830  0.15844610  0.99739760    -0.93500
O414        O  0.16764066  0.07165996  0.03442044    -0.41300
O415        O  0.22391639  0.12067521  0.99302741    -0.77900
O416        O  0.17589367  0.11345297  0.04192148    -0.96600
O417        O  0.18960022  0.14650913  0.07834649    -0.89900
O418        O  0.24096772  0.15451073  0.02671875    -0.92700
C419        C  0.26099630  0.06081509  0.06538941     1.01000
C420        C  0.35175302  0.11937216  0.05266518     1.14000
C421        C  0.23361215  0.10315059  0.17432066     1.04700
O422        O  0.14829384  0.09014979  0.11501033    -0.94900
O423        O  0.12392325  0.12502781  0.08758166    -0.90600
O424        O  0.12517232  0.13768065  0.03309230    -0.83800
C425        C  0.10920131  0.13157830  0.06029010     1.11400
O426        O  0.29108945  0.16285896  0.13170781    -0.96900
Zr427      Zr  0.24574097  0.15801645  0.08858898     1.88900
O428        O  0.17474847  0.17434805  0.02933371    -0.73500
O429        O  0.15439153  0.13403187  0.15216853    -0.52800
O430        O  0.22195201  0.16873400  0.14416920    -0.97400
O431        O  0.28629125  0.18137383  0.07038536    -0.54700
O432        O  0.20898782  0.18340448  0.07417993    -0.74000
C433        C  0.18493863  0.18610022  0.05179063     0.98300
O434        O  0.13817420  0.14688925  0.97421863    -0.62800
O435        O  0.30450350  0.11561049  0.95666079    -0.57600
O436        O  0.20435203  0.14866978  0.95515464    -0.94300
O437        O  0.26246468  0.14583994  0.95263895    -0.92800
O438        O  0.24107983  0.07768072  0.96776169    -0.93100
O439        O  0.17591509  0.08869956  0.96968749    -0.91900
C440        C  0.23347306  0.14971118  0.93886134     1.17200
H441        H  0.28896857  0.09397782  0.02207576     0.33100
H442        H  0.15355572  0.10859972  0.03625831     0.44000
H443        H  0.24445785  0.16575010  0.01440543     0.37500
H444        H  0.24171498  0.13185734  0.14007119     0.34000
H445        H  0.17101905  0.06094527  0.01925872     0.25800
H446        H  0.17352831  0.13831913  0.16712256     0.31700
H447        H  0.19671373  0.16833664  0.14093552     0.37600
H448        H  0.26476016  0.07451156  0.97490036     0.32100
H449        H  0.31884249  0.10601362  0.96709020     0.30900
H450        H  0.32805157  0.15615113  0.97493181     0.32600
H451        H  0.27595154  0.18712082  0.04948339     0.31600
H452        H  0.17691529  0.10047423  0.95748633     0.35600
H453        H  0.14209612  0.15881741  0.96322331     0.28300
H454        H  0.31643802  0.08392766  0.13896492     0.32500
H455        H  0.28869811  0.17553761  0.13947818     0.35400
H456        H  0.28473920  0.10912464  0.94620760     0.28000
H457        H  0.14208407  0.13797791  0.95521523     0.40900
H458        H  0.14472222  0.08978075  0.14079203     0.30900
H459        H  0.17294776  0.06735626  0.05842613     0.38600
H460        H  0.30642315  0.17471281  0.06112926     0.30400
H461        H  0.14547926  0.14512143  0.14101447     0.30500
H462        H  0.32661937  0.10399502  0.14708037     0.30700
Zr463      Zr  0.68436855  0.14873482  0.10369677     2.17500
O464        O  0.63816257  0.15463182  0.14578631    -0.51600
O465        O  0.67359586  0.18040526  0.09033220    -0.74800
O466        O  0.70533397  0.15537612  0.16358366    -0.81600
O467        O  0.62277875  0.12506263  0.04011330    -0.83400
O468        O  0.76350936  0.15254163  0.16414802    -0.79000
O469        O  0.62485092  0.13908317  0.09315135    -0.90600
O470        O  0.70735299  0.18956949  0.04504706    -0.76600
O471        O  0.73943597  0.16108119  0.08977405    -0.86100
O472        O  0.68627832  0.15225907  0.04117088    -0.85800
O473        O  0.72492623  0.12676204  0.12467132    -0.72500
O474        O  0.67667104  0.11933278  0.07863840    -0.84700
Zr475      Zr  0.77440273  0.11216779  0.02301855     2.26400
Zr476      Zr  0.77994424  0.13893373  0.10876731     2.06300
Zr477      Zr  0.67962625  0.12288032  0.01610111     2.10000
Zr478      Zr  0.74179772  0.16392402  0.02746225     1.78800
O479        O  0.64913728  0.09521925  0.00087695    -0.93500
O480        O  0.78540767  0.18613944  0.04316402    -0.41300
O481        O  0.73496177  0.13458141  0.00246384    -0.77900
O482        O  0.78337984  0.14223040  0.04617006    -0.96600
O483        O  0.77292770  0.10908840  0.08537496    -0.89900
O484        O  0.71872593  0.10049468  0.03640213    -0.92700
C485        C  0.68396782  0.19237902  0.06829935     1.01000
C486        C  0.60860847  0.13098147  0.06824291     1.14000
C487        C  0.73474977  0.15622922  0.17907076     1.04700
O488        O  0.81421967  0.16624004  0.11518180    -0.94900
O489        O  0.83773944  0.13209414  0.09050350    -0.90600
O490        O  0.83463066  0.11710964  0.03849549    -0.83800
C491        C  0.85147304  0.12458450  0.06358504     1.11400
O492        O  0.68369178  0.09296742  0.15244039    -0.96900
Zr493      Zr  0.71729541  0.09767624  0.09902635     1.88900
O494        O  0.77523964  0.07916140  0.02858420    -0.73500
O495        O  0.80865921  0.12255133  0.15568470    -0.52800
O496        O  0.75295198  0.08631440  0.14662373    -0.97400
O497        O  0.66814994  0.07742655  0.09358826    -0.54700
O498        O  0.74312639  0.07067922  0.07566003    -0.74000
C499        C  0.76237597  0.06714182  0.04920926     0.98300
O500        O  0.81531303  0.10228737  0.97806523    -0.62800
O501        O  0.64551784  0.14008556  0.97425928    -0.57600
O502        O  0.75796916  0.11216201  0.96107513    -0.94300
O503        O  0.70044493  0.11673876  0.95671259    -0.92800
O504        O  0.71415681  0.17473743  0.97419007    -0.93100
O505        O  0.78038809  0.16947710  0.97797147    -0.91900
C506        C  0.73016800  0.11362069  0.94309629     1.17200
H507        H  0.66824770  0.16012476  0.03303715     0.33100
H508        H  0.80541480  0.14704456  0.03906787     0.44000
H509        H  0.71379791  0.08930757  0.02451864     0.37500
H510        H  0.72324260  0.12490071  0.14971084     0.34000
H511        H  0.78311377  0.19581990  0.02543032     0.25800
H512        H  0.81918394  0.13195892  0.17070102     0.31700
H513        H  0.75251157  0.07303504  0.14410514     0.37600
H514        H  0.70611304  0.16368304  0.96211544     0.32100
H515        H  0.62960233  0.13113192  0.96385231     0.30900
H516        H  0.66035968  0.09073156  0.97917102     0.32600
H517        H  0.65530878  0.08200536  0.07304154     0.31600
H518        H  0.79210051  0.15781034  0.97397101     0.35600
H519        H  0.82975090  0.11291393  0.97237161     0.28300
H520        H  0.64315329  0.16661618  0.15607491     0.32500
H521        H  0.66822569  0.10353900  0.15374288     0.35400
H522        H  0.63051917  0.14801623  0.98855944     0.28000
H523        H  0.83096077  0.09367109  0.98975080     0.40900
H524        H  0.83026103  0.16357884  0.13464065     0.30900
H525        H  0.77689049  0.19164898  0.06526060     0.38600
H526        H  0.67774081  0.06576014  0.08564405     0.30400
H527        H  0.78976458  0.11747516  0.17015907     0.30500
H528        H  0.64149244  0.14594707  0.16522723     0.30700
Zr529      Zr  0.51417795  0.39315701  0.49838576     2.17500
O530        O  0.56433739  0.40151288  0.46302106    -0.51600
O531        O  0.51230672  0.42635400  0.49811282    -0.74800
O532        O  0.50405481  0.39091080  0.43527008    -0.81600
O533        O  0.57331160  0.37805532  0.57421164    -0.83400
O534        O  0.44819835  0.38365306  0.42511825    -0.79000
O535        O  0.57287462  0.38818053  0.51794706    -0.90600
O536        O  0.47557646  0.43612666  0.54040227    -0.76600
O537        O  0.45639138  0.40339992  0.50205969    -0.86100
O538        O  0.50519831  0.40102456  0.55841228    -0.85800
O539        O  0.48054129  0.36730653  0.48067432    -0.72500
O540        O  0.52386221  0.36591053  0.53142430    -0.84700
Zr541      Zr  0.41978765  0.35948182  0.57783276     2.26400
Zr542      Zr  0.42263318  0.37808629  0.48340367     2.06300
Zr543      Zr  0.51371392  0.37392724  0.59116357     2.10000
Zr544      Zr  0.44681801  0.41032151  0.56285549     1.78800
O545        O  0.55058203  0.35119168  0.61749723    -0.93500
O546        O  0.40182138  0.42989226  0.54015316    -0.41300
O547        O  0.45549598  0.38391912  0.59704662    -0.77900
O548        O  0.41089087  0.38641870  0.54366346    -0.96600
O549        O  0.42994875  0.35126925  0.51797612    -0.89900
O550        O  0.47772015  0.34897435  0.57506101    -0.92700
C551        C  0.49722827  0.43890156  0.51578323     1.01000
C552        C  0.58851239  0.38297187  0.54580719     1.14000
C553        C  0.47912340  0.38697836  0.41456243     1.04700
O554        O  0.39003194  0.40336979  0.46011510    -0.94900
O555        O  0.36306818  0.37130158  0.49743680    -0.90600
O556        O  0.36122642  0.36299485  0.55496208    -0.83800
C557        C  0.34670142  0.36702751  0.52561612     1.11400
O558        O  0.53572874  0.33337596  0.47682063    -0.96900
Zr559      Zr  0.48779080  0.34097744  0.51550474     1.88900
O560        O  0.41316974  0.32686988  0.57289022    -0.73500
O561        O  0.40160285  0.35661297  0.43993923    -0.52800
O562        O  0.47076887  0.32611910  0.46110945    -0.97400
O563        O  0.52824713  0.32065372  0.54398571    -0.54700
O564        O  0.45144221  0.31601864  0.53322257    -0.74000
C565        C  0.42608555  0.31399649  0.55453520     0.98300
O566        O  0.37591077  0.35449316  0.62288870    -0.62800
O567        O  0.53326014  0.39765521  0.63069353    -0.57600
O568        O  0.43345611  0.36117684  0.64116292    -0.94300
O569        O  0.49135227  0.36456765  0.64723563    -0.92800
O570        O  0.46966449  0.42573614  0.61430748    -0.93100
O571        O  0.40144511  0.41694887  0.60530669    -0.91900
C572        C  0.46112352  0.36207209  0.65974605     1.17200
H573        H  0.52094574  0.41041048  0.56576423     0.33100
H574        H  0.38812907  0.39140040  0.54629902     0.44000
H575        H  0.48096687  0.33892498  0.59077009     0.37500
H576        H  0.48656701  0.36268545  0.45784895     0.34000
H577        H  0.40612079  0.44177352  0.55120799     0.25800
H578        H  0.39070360  0.34682523  0.45375080     0.31700
H579        H  0.44535458  0.32546387  0.46231910     0.37600
H580        H  0.46056667  0.43816315  0.61274994     0.32100
H581        H  0.51384113  0.39957936  0.64719260     0.30900
H582        H  0.56463239  0.35784883  0.63488709     0.32600
H583        H  0.52874426  0.30980936  0.52878827     0.31600
H584        H  0.39911004  0.40579656  0.61939872     0.35600
H585        H  0.36291972  0.36593323  0.62440584     0.28300
H586        H  0.55646872  0.41101860  0.44668274     0.32500
H587        H  0.54704498  0.34506328  0.47173775     0.35400
H588        H  0.55131579  0.39192136  0.64512116     0.28000
H589        H  0.35955650  0.34563930  0.61286949     0.40900
H590        H  0.36894180  0.39792370  0.45013386     0.30900
H591        H  0.40778892  0.43167596  0.51505597     0.38600
H592        H  0.51654375  0.31652237  0.56569544     0.30400
H593        H  0.38221081  0.36280909  0.42830630     0.30500
H594        H  0.56941910  0.39096894  0.44788967     0.30700
Zr595      Zr  0.01198844  0.39034387  0.48159158     2.17500
O596        O  0.06063801  0.39759807  0.44324181    -0.51600
O597        O  0.00601165  0.42274973  0.46998117    -0.74800
O598        O  0.99841176  0.38564115  0.42003272    -0.81600
O599        O  0.07453085  0.37741670  0.55460351    -0.83400
O600        O  0.94177871  0.37814389  0.41558106    -0.79000
O601        O  0.07224997  0.38646144  0.49769899    -0.90600
O602        O  0.97340421  0.43555974  0.51248462    -0.76600
O603        O  0.95499231  0.40139050  0.48829122    -0.86100
O604        O  0.00832929  0.40087023  0.54077071    -0.85800
O605        O  0.97616580  0.36429503  0.47017315    -0.72500
O606        O  0.02260861  0.36435537  0.51793730    -0.84700
Zr607      Zr  0.92210537  0.36111549  0.57157348     2.26400
Zr608      Zr  0.91874476  0.37598513  0.47587443     2.06300
Zr609      Zr  0.01660828  0.37479876  0.57698347     2.10000
Zr610      Zr  0.95099523  0.41140602  0.54790070     1.78800
O611        O  0.05957309  0.35555084  0.60422536    -0.93500
O612        O  0.90358561  0.43143556  0.53245482    -0.41300
O613        O  0.95955782  0.38595149  0.58529172    -0.77900
O614        O  0.91265493  0.38714171  0.53518738    -0.96600
O615        O  0.92762609  0.35029658  0.51296459    -0.89900
O616        O  0.97912267  0.34969861  0.56653812    -0.92700
C617        C  0.99114920  0.43641601  0.48417831     1.01000
C618        C  0.08876760  0.38150758  0.52521812     1.14000
C619        C  0.97180797  0.38115904  0.40224817     1.04700
O620        O  0.88614278  0.40010338  0.44829300    -0.94900
O621        O  0.85982337  0.37225259  0.49718995    -0.90600
O622        O  0.86201195  0.36342342  0.55438398    -0.83800
C623        C  0.84550125  0.36791742  0.52659155     1.11400
O624        O  0.02876687  0.32788319  0.46810811    -0.96900
Zr625      Zr  0.98482191  0.33930268  0.50806295     1.88900
O626        O  0.91082300  0.32886406  0.56936263    -0.73500
O627        O  0.88838498  0.35303954  0.44195290    -0.52800
O628        O  0.96124065  0.32335233  0.45753822    -0.97400
O629        O  0.02794098  0.32039220  0.53600189    -0.54700
O630        O  0.94944148  0.31560013  0.53292759    -0.74000
C631        C  0.92340659  0.31503202  0.55368587     0.98300
O632        O  0.88257650  0.36256586  0.62155940    -0.62800
O633        O  0.03357582  0.39957365  0.61533093    -0.57600
O634        O  0.94096525  0.35846897  0.63216333    -0.94300
O635        O  0.99883763  0.36294058  0.63324630    -0.92800
O636        O  0.98327811  0.42844224  0.59161915    -0.93100
O637        O  0.91280974  0.42007995  0.59592720    -0.91900
C638        C  0.97008147  0.35899059  0.64790238     1.17200
H639        H  0.02529055  0.41012580  0.54528957     0.33100
H640        H  0.89019315  0.39220824  0.53925837     0.44000
H641        H  0.98307716  0.34001090  0.58295662     0.37500
H642        H  0.98060632  0.35858398  0.44789587     0.34000
H643        H  0.90889679  0.43602213  0.50860495     0.25800
H644        H  0.90367885  0.35008241  0.42190790     0.31700
H645        H  0.96287169  0.31041474  0.46363757     0.37600
H646        H  0.99905077  0.43628723  0.57798169     0.32100
H647        H  0.03003195  0.39498246  0.63951689     0.30900
H648        H  0.07036710  0.36317015  0.62253208     0.32600
H649        H  0.01569675  0.31420528  0.55543187     0.31600
H650        H  0.89687971  0.40973806  0.59868492     0.35600
H651        H  0.86865964  0.37358207  0.61814830     0.28300
H652        H  0.05241446  0.40718966  0.42728436     0.32500
H653        H  0.04181049  0.33872952  0.46075014     0.35400
H654        H  0.05887312  0.40037319  0.61264438     0.28000
H655        H  0.86632838  0.35238947  0.61846688     0.40900
H656        H  0.89836763  0.41134748  0.45469376     0.30900
H657        H  0.88344069  0.42347114  0.52892366     0.38600
H658        H  0.04357050  0.32899686  0.54787184     0.30400
H659        H  0.88880369  0.34210630  0.45684406     0.30500
H660        H  0.06400212  0.38694315  0.42789823     0.30700
Zr661      Zr  0.97837092  0.60835332  0.39741676     2.17500
O662        O  0.93282017  0.59758617  0.35859340    -0.51600
O663        O  0.97442362  0.57514987  0.39972595    -0.74800
O664        O  0.99091941  0.61351386  0.33532341    -0.81600
O665        O  0.91830925  0.62130702  0.47252656    -0.83400
O666        O  0.04570983  0.62334978  0.32717132    -0.79000
O667        O  0.91946757  0.61579727  0.41384295    -0.90600
O668        O  0.02849098  0.56676056  0.41160290    -0.76600
O669        O  0.03666141  0.59860512  0.39809119    -0.86100
O670        O  0.98677178  0.59685067  0.45528677    -0.85800
O671        O  0.01197683  0.63533670  0.38583199    -0.72500
O672        O  0.96841631  0.63354957  0.43622652    -0.84700
Zr673      Zr  0.07172451  0.63733497  0.48441778     2.26400
Zr674      Zr  0.07033410  0.62500829  0.38650092     2.06300
Zr675      Zr  0.97737008  0.62194106  0.49343291     2.10000
Zr676      Zr  0.04543640  0.58756785  0.45631295     1.78800
O677        O  0.93843992  0.64139658  0.52641582    -0.93500
O678        O  0.09609995  0.56976965  0.44058546    -0.41300
O679        O  0.03568871  0.61175740  0.49659000    -0.77900
O680        O  0.08103588  0.61276298  0.44413284    -0.96600
O681        O  0.06215189  0.64937714  0.42712124    -0.89900
O682        O  0.01354645  0.64772991  0.48389680    -0.92700
C683        C  0.99772521  0.56302707  0.40302754     1.01000
C684        C  0.90350302  0.61952167  0.44257119     1.14000
C685        C  0.01545869  0.61940271  0.31569979     1.04700
O686        O  0.10298536  0.60239713  0.35422007    -0.94900
O687        O  0.12977627  0.62933256  0.40375117    -0.90600
O688        O  0.13133684  0.63590432  0.46213157    -0.83800
C689        C  0.14613430  0.63265357  0.43235692     1.11400
O690        O  0.95349605  0.66855169  0.39386274    -0.96900
Zr691      Zr  0.00421765  0.65945508  0.42675199     1.88900
O692        O  0.08104644  0.66986983  0.48496180    -0.73500
O693        O  0.09548565  0.65012721  0.35416030    -0.52800
O694        O  0.02000036  0.67696610  0.37498317    -0.97400
O695        O  0.96531469  0.67921146  0.45923571    -0.54700
O696        O  0.04220496  0.68297691  0.44882710    -0.74000
C697        C  0.06840323  0.68366750  0.46927506     0.98300
O698        O  0.11395919  0.63458421  0.53136700    -0.62800
O699        O  0.95812482  0.59565431  0.52652845    -0.57600
O700        O  0.05540040  0.63589277  0.54704697    -0.94300
O701        O  0.99834417  0.62914503  0.55090958    -0.92800
O702        O  0.01492453  0.56516212  0.49142563    -0.93100
O703        O  0.08177413  0.57882645  0.50541225    -0.91900
C704        C  0.02740625  0.63307560  0.56456770     1.17200
H705        H  0.97099741  0.58717164  0.46074939     0.33100
H706        H  0.10387602  0.60791227  0.44613386     0.44000
H707        H  0.00995973  0.65676102  0.50184357     0.37500
H708        H  0.00583933  0.64113281  0.36410190     0.34000
H709        H  0.09419084  0.56744073  0.41503436     0.25800
H710        H  0.10766519  0.64445815  0.33409324     0.31700
H711        H  0.01218098  0.68936655  0.38032858     0.37600
H712        H  0.02293261  0.55342005  0.48211834     0.32100
H713        H  0.97645229  0.59356741  0.54404874     0.30900
H714        H  0.92459648  0.63313840  0.54126247     0.32600
H715        H  0.96797423  0.69113243  0.44783742     0.31600
H716        H  0.09512697  0.58983172  0.51106322     0.35600
H717        H  0.12734697  0.62359394  0.52581300     0.28300
H718        H  0.94407890  0.58961328  0.34111159     0.32500
H719        H  0.94389547  0.65715335  0.38447769     0.35400
H720        H  0.93823878  0.59994962  0.54052804     0.28000
H721        H  0.13023392  0.64472734  0.52802470     0.40900
H722        H  0.10400904  0.59193666  0.37030386     0.30900
H723        H  0.11615883  0.57792666  0.44265141     0.38600
H724        H  0.97581715  0.68083189  0.48268097     0.30400
H725        H  0.07566471  0.65638212  0.34345209     0.30500
H726        H  0.92503856  0.60818580  0.34504853     0.30700
Zr727      Zr  0.57365925  0.65114100  0.38906650     2.17500
O728        O  0.62275274  0.65408276  0.34920821    -0.51600
O729        O  0.58001624  0.68382569  0.39322043    -0.74800
O730        O  0.55738677  0.65234098  0.32616834    -0.81600
O731        O  0.63103347  0.63702465  0.46633612    -0.83400
O732        O  0.49998753  0.64666072  0.32242920    -0.79000
O733        O  0.63268659  0.64598775  0.40930715    -0.90600
O734        O  0.54149531  0.69451972  0.43280787    -0.76600
O735        O  0.51575320  0.66154581  0.39368690    -0.86100
O736        O  0.56495751  0.65888352  0.44961312    -0.85800
O737        O  0.53808140  0.62621683  0.37105234    -0.72500
O738        O  0.58314467  0.62452427  0.42349317    -0.84700
Zr739      Zr  0.48014979  0.61627797  0.46960760     2.26400
Zr740      Zr  0.47977530  0.63642217  0.37838828     2.06300
Zr741      Zr  0.57203503  0.63203541  0.48402878     2.10000
Zr742      Zr  0.50723024  0.66904856  0.45376888     1.78800
O743        O  0.60133580  0.60607049  0.50906135    -0.93500
O744        O  0.46453790  0.68881585  0.42747274    -0.41300
O745        O  0.51421199  0.64186180  0.48651779    -0.77900
O746        O  0.46995370  0.64422325  0.43842177    -0.96600
O747        O  0.48917577  0.60886595  0.40951999    -0.89900
O748        O  0.53852043  0.60665521  0.46596062    -0.92700
C749        C  0.56653837  0.69675360  0.41101854     1.01000
C750        C  0.64738703  0.64127302  0.43819104     1.14000
C751        C  0.52909976  0.65063102  0.30880704     1.04700
O752        O  0.44223453  0.66114077  0.36141144    -0.94900
O753        O  0.42074925  0.62845380  0.39198362    -0.90600
O754        O  0.42128796  0.61750905  0.44751297    -0.83800
C755        C  0.40550324  0.62226773  0.41943322     1.11400
O756        O  0.59123263  0.59175451  0.36150957    -0.96900
Zr757      Zr  0.54792872  0.59998305  0.40510804     1.88900
O758        O  0.48500770  0.58299951  0.47224190    -0.73500
O759        O  0.45806728  0.61593536  0.33347110    -0.52800
O760        O  0.52546529  0.58499350  0.35295646    -0.97400
O761        O  0.59445755  0.58136145  0.42771228    -0.54700
O762        O  0.51966993  0.57399664  0.42758374    -0.74000
C763        C  0.50034987  0.57073533  0.45396479     0.98300
O764        O  0.43827514  0.60620001  0.51342224    -0.62800
O765        O  0.59884571  0.65186454  0.52718064    -0.57600
O766        O  0.48682867  0.62446004  0.53119285    -0.94300
O767        O  0.54301618  0.63075615  0.54184151    -0.92800
O768        O  0.52906801  0.68283376  0.50737745    -0.93100
O769        O  0.46323863  0.67818148  0.49589951    -0.91900
C770        C  0.51150590  0.62871713  0.55198164     1.17200
H771        H  0.58107173  0.66800295  0.45719509     0.33100
H772        H  0.44673412  0.64844076  0.44201335     0.44000
H773        H  0.54322330  0.59651421  0.48106404     0.37500
H774        H  0.54257418  0.62254665  0.34713408     0.34000
H775        H  0.46734719  0.70046829  0.43986937     0.25800
H776        H  0.44409403  0.62361530  0.31777854     0.31700
H777        H  0.50043584  0.58380464  0.35729882     0.37600
H778        H  0.53540751  0.67255168  0.52258934     0.32100
H779        H  0.61832043  0.64486433  0.53675001     0.30900
H780        H  0.62026769  0.61124840  0.52319278     0.32600
H781        H  0.58595964  0.57665594  0.45050460     0.31600
H782        H  0.45269098  0.66672559  0.50387675     0.35600
H783        H  0.42065100  0.61579516  0.51486196     0.28300
H784        H  0.61842813  0.66504964  0.33510098     0.32500
H785        H  0.60972158  0.60082883  0.36439135     0.35400
H786        H  0.60978896  0.66164429  0.51339824     0.28000
H787        H  0.42635586  0.59575122  0.50273532     0.40900
H788        H  0.45770730  0.67043885  0.35137091     0.30900
H789        H  0.47328945  0.69119259  0.40343382     0.48200
H790        H  0.61278837  0.59002396  0.43417469     0.30400
H791        H  0.47842479  0.61259288  0.31917261     0.30500
H792        H  0.62090991  0.64391408  0.33241610     0.30700
Zr793      Zr  0.06698473  0.35245912  0.07049674     2.17500
O794        O  0.11505927  0.35031668  0.11135339    -0.51600
O795        O  0.07547497  0.31983580  0.06837847    -0.74800
O796        O  0.04902221  0.35217094  0.13285924    -0.81600
O797        O  0.12848605  0.36754738  0.99465754    -0.83400
O798        O  0.99203275  0.35875017  0.13521044    -0.79000
O799        O  0.12572213  0.36006062  0.05255347    -0.90600
O800        O  0.03764340  0.30800525  0.02934357    -0.76600
O801        O  0.00924611  0.34185981  0.06582946    -0.86100
O802        O  0.06054773  0.34231104  0.01107567    -0.85800
O803        O  0.03145265  0.37806766  0.08446524    -0.72500
O804        O  0.07716543  0.37779175  0.03300178    -0.84700
Zr805      Zr  0.97644006  0.38419156  0.98372131     2.26400
Zr806      Zr  0.97356111  0.36743797  0.07760340     2.06300
Zr807      Zr  0.06953847  0.36779789  0.97370012     2.10000
Zr808      Zr  0.00250649  0.33231831  0.00658622     1.78800
O809        O  0.09946182  0.39113184  0.94041783    -0.93500
O810        O  0.96158142  0.31185145  0.03447119    -0.41300
O811        O  0.01128034  0.35824057  0.97076898    -0.77900
O812        O  0.96534473  0.35748883  0.01852936    -0.96600
O813        O  0.98368556  0.39384590  0.04277722    -0.89900
O814        O  0.03514034  0.39350802  0.98700516    -0.92700
C815        C  0.06270961  0.30655278  0.05102850     1.01000
C816        C  0.14245277  0.36479165  0.02472989     1.14000
C817        C  0.02050161  0.35447585  0.14966141     1.04700
O818        O  0.93602373  0.34363617  0.09961448    -0.94900
O819        O  0.91480599  0.37318078  0.06102303    -0.90600
O820        O  0.91655788  0.38371552  0.00503031    -0.83800
C821        C  0.90026834  0.37880814  0.03296212     1.11400
O822        O  0.07725744  0.41204540  0.09677273    -0.96900
Zr823      Zr  0.04227156  0.40315494  0.04653944     1.88900
O824        O  0.98320903  0.41702966  0.97365914    -0.73500
O825        O  0.95184509  0.39060034  0.11729829    -0.52800
O826        O  0.01068058  0.42408017  0.08394109    -0.97400
O827        O  0.09614688  0.41749834  0.02891638    -0.54700
O828        O  0.02478494  0.42771908  0.00995345    -0.74000
C829        C  0.00318955  0.42965443  0.98500436     0.98300
O830        O  0.93402149  0.39194758  0.93902976    -0.62800
O831        O  0.09723705  0.34394725  0.93969621    -0.57600
O832        O  0.98606149  0.37431019  0.92369838    -0.94300
O833        O  0.04262581  0.36772039  0.91563982    -0.92800
O834        O  0.02252508  0.31733864  0.95326049    -0.93100
O835        O  0.95673657  0.32308293  0.96685938    -0.91900
C836        C  0.01163390  0.36955173  0.90439406     1.17200
H837        H  0.07697669  0.33307086  0.00501856     0.33100
H838        H  0.94229994  0.35303749  0.01488590     0.44000
H839        H  0.04118763  0.40254034  0.96980593     0.37500
H840        H  0.03532271  0.38230145  0.10813627     0.34000
H841        H  0.96902201  0.31111737  0.05929192     0.25800
H842        H  0.93349439  0.38453343  0.13103618     0.31700
H843        H  0.00602967  0.41726393  0.10581601     0.37600
H844        H  0.04658694  0.31384890  0.95818880     0.32100
H845        H  0.10923351  0.35028991  0.92029525     0.30900
H846        H  0.10768819  0.38499608  0.91884081     0.32600
H847        H  0.09494860  0.41821903  0.00295213     0.31600
H848        H  0.94968780  0.33435850  0.95500926     0.35600
H849        H  0.92107363  0.40237468  0.94849585     0.28300
H850        H  0.11030172  0.33965116  0.12623885     0.32500
H851        H  0.07879453  0.42535605  0.09560492     0.35400
H852        H  0.11598863  0.33934977  0.95473333     0.28000
H853        H  0.91725457  0.38187765  0.93857400     0.40900
H854        H  0.92417150  0.34899564  0.12020301     0.30900
H855        H  0.93967711  0.31862082  0.03540752     0.38600
H856        H  0.11416446  0.40838861  0.03346042     0.30400
H857        H  0.97054682  0.39266088  0.13443452     0.30500
H858        H  0.11288053  0.36082275  0.12730271     0.30700
Zr859      Zr  0.56637967  0.35734542  0.07976462     2.17500
O860        O  0.61444777  0.35120414  0.11902989    -0.51600
O861        O  0.57276250  0.32492449  0.07401843    -0.74800
O862        O  0.54967254  0.35674370  0.14278602    -0.81600
O863        O  0.62507433  0.37393507  0.00317114    -0.83400
O864        O  0.49151897  0.35941462  0.14640501    -0.79000
O865        O  0.62515015  0.36493363  0.06030516    -0.90600
O866        O  0.53536021  0.31409174  0.03361765    -0.76600
O867        O  0.50874845  0.34657676  0.07480556    -0.86100
O868        O  0.55826804  0.34977548  0.01907221    -0.85800
O869        O  0.53045950  0.38193651  0.09849565    -0.72500
O870        O  0.57617175  0.38395560  0.04569293    -0.84700
Zr871      Zr  0.47337558  0.39226492  0.00034546     2.26400
Zr872      Zr  0.47249956  0.37135760  0.09112394     2.06300
Zr873      Zr  0.56564096  0.37676590  0.98518522     2.10000
Zr874      Zr  0.50057090  0.33947150  0.01449836     1.78800
O875        O  0.59405721  0.40220354  0.95676505    -0.93500
O876        O  0.45857291  0.31940346  0.04180782    -0.41300
O877        O  0.50765099  0.36689631  0.98228951    -0.77900
O878        O  0.46336609  0.36401109  0.03075961    -0.96600
O879        O  0.48230490  0.39918042  0.06070495    -0.89900
O880        O  0.53176896  0.40198281  0.00378599    -0.92700
C881        C  0.55996809  0.31206527  0.05567134     1.01000
C882        C  0.64064472  0.37005075  0.03190498     1.14000
C883        C  0.52111146  0.35712838  0.16026993     1.04700
O884        O  0.43310270  0.34743803  0.10887039    -0.94900
O885        O  0.41337497  0.37853827  0.07666669    -0.90600
O886        O  0.41401621  0.38928184  0.02087620    -0.83800
C887        C  0.39821690  0.38414921  0.04885621     1.11400
O888        O  0.58576739  0.41459334  0.10774038    -0.96900
Zr889      Zr  0.54119379  0.40822137  0.06466362     1.88900
O890        O  0.47524924  0.42570700  0.00141471    -0.73500
O891        O  0.45477953  0.39194172  0.13768106    -0.52800
O892        O  0.52242314  0.42483522  0.11657298    -0.97400
O893        O  0.58885439  0.42576761  0.04052648    -0.54700
O894        O  0.51288888  0.43424837  0.04342075    -0.74000
C895        C  0.49114370  0.43783526  0.01951761     0.98300
O896        O  0.43180664  0.40309207  0.95729626    -0.62800
O897        O  0.59497407  0.35552710  0.94646280    -0.57600
O898        O  0.48128421  0.38568138  0.93805736    -0.94300
O899        O  0.53668404  0.37774000  0.92789923    -0.92800
O900        O  0.52164527  0.32631761  0.95980915    -0.93100
O901        O  0.45514374  0.32981511  0.97469909    -0.91900
C902        C  0.50575610  0.38075390  0.91737981     1.17200
H903        H  0.57458426  0.34082355  0.01117751     0.33100
H904        H  0.44038809  0.35949764  0.02696482     0.44000
H905        H  0.53613319  0.41229889  0.98895041     0.37500
H906        H  0.53445219  0.38567243  0.12244645     0.34000
H907        H  0.46237286  0.30755862  0.03042981     0.25800
H908        H  0.44439695  0.40230957  0.12530754     0.31700
H909        H  0.49815122  0.42802395  0.11193463     0.37600
H910        H  0.51660796  0.33543292  0.94154743     0.32100
H911        H  0.57641600  0.34882357  0.93438823     0.30900
H912        H  0.59460876  0.39903788  0.93146812     0.32600
H913        H  0.58035460  0.43063292  0.01795924     0.31600
H914        H  0.44078454  0.34066768  0.97125716     0.35600
H915        H  0.41505454  0.39316458  0.95394320     0.28300
H916        H  0.60751219  0.34058760  0.13316034     0.32500
H917        H  0.59629365  0.40272239  0.11263946     0.35400
H918        H  0.60549918  0.36310012  0.92787323     0.28000
H919        H  0.41865127  0.41273967  0.96927843     0.40900
H920        H  0.42300882  0.34293666  0.08666098     0.30900
H921        H  0.46682859  0.31771682  0.06617133     0.38600
H922        H  0.60633391  0.41672528  0.03363070     0.30400
H923        H  0.43512074  0.38581796  0.14926774     0.30500
H924        H  0.61504420  0.36138227  0.13589604     0.30700
Zr925      Zr  0.51072896  0.61578785  0.97247452     2.17500
O926        O  0.55312225  0.60663341  0.01617183    -0.51600
O927        O  0.50462010  0.58265710  0.97599454    -0.74800
O928        O  0.50179023  0.62059281  0.03506596    -0.81600
O929        O  0.57141609  0.62823674  0.89585408    -0.83400
O930        O  0.44751760  0.63072094  0.04507034    -0.79000
O931        O  0.57021154  0.61757756  0.95168250    -0.90600
O932        O  0.46432827  0.57307626  0.93728289    -0.76600
O933        O  0.45136830  0.60824896  0.97137612    -0.86100
O934        O  0.49966544  0.60609468  0.91385176    -0.85800
O935        O  0.48188364  0.64374696  0.98671109    -0.72500
O936        O  0.52409922  0.64134871  0.93571956    -0.84700
Zr937      Zr  0.42003112  0.65012625  0.88980994     2.26400
Zr938      Zr  0.42226125  0.63564049  0.98664977     2.06300
Zr939      Zr  0.51180669  0.63160780  0.87730877     2.10000
Zr940      Zr  0.43973092  0.59924150  0.91216398     1.78800
O941        O  0.55451245  0.64856102  0.84389772    -0.93500
O942        O  0.39171551  0.58457258  0.94220790    -0.41300
O943        O  0.45207015  0.62374188  0.87360812    -0.77900
O944        O  0.40819113  0.62514375  0.92827707    -0.96600
O945        O  0.43279671  0.66055504  0.94773362    -0.89900
O946        O  0.47947916  0.65837906  0.88993339    -0.92700
C947        C  0.48680991  0.57022748  0.96081883     1.01000
C948        C  0.58636905  0.62271541  0.92391235     1.14000
C949        C  0.47772221  0.62612719  0.05557050     1.04700
O950        O  0.38531303  0.61443393  0.01794488    -0.94900
O951        O  0.36326521  0.64272536  0.97223251    -0.90600
O952        O  0.36101536  0.64977462  0.91411958    -0.83800
C953        C  0.34663513  0.64666383  0.94417470     1.11400
O954        O  0.53965676  0.67966653  0.98301382    -0.96900
Zr955      Zr  0.49216764  0.66831640  0.94757036     1.88900
O956        O  0.41714054  0.68271708  0.89121487    -0.73500
O957        O  0.40398378  0.66130743  0.02213848    -0.52800
O958        O  0.47579651  0.68549123  0.99967768    -0.97400
O959        O  0.53889761  0.68229469  0.91432231    -0.54700
O960        O  0.46080348  0.69379373  0.92395331    -0.74000
C961        C  0.43383011  0.69581238  0.90502273     0.98300
O962        O  0.37580233  0.65279397  0.84478315    -0.62800
O963        O  0.52354240  0.60506067  0.84149605    -0.57600
O964        O  0.43426807  0.64940969  0.82653742    -0.94300
O965        O  0.49115052  0.64261321  0.82150868    -0.92800
O966        O  0.45489787  0.57959115  0.86315234    -0.93100
O967        O  0.39254757  0.59298653  0.87200286    -0.91900
C968        C  0.46215000  0.64726735  0.80849349     1.17200
H969        H  0.51379009  0.59586603  0.90763790     0.33100
H970        H  0.38479828  0.62089136  0.92679639     0.44000
H971        H  0.48406685  0.66769176  0.87281738     0.37500
H972        H  0.48903777  0.64884052  0.00882592     0.34000
H973        H  0.39355512  0.57168276  0.93573126     0.25800
H974        H  0.38469880  0.65665851  0.03663434     0.31700
H975        H  0.45130231  0.68857197  0.99606861     0.37600
H976        H  0.47887357  0.57580256  0.86765427     0.32100
H977        H  0.51529323  0.60822165  0.81769950     0.30900
H978        H  0.56378750  0.63985941  0.82653632     0.32600
H979        H  0.52785937  0.68803743  0.89379798     0.31600
H980        H  0.39584857  0.60160820  0.85241070     0.35600
H981        H  0.35992679  0.64250925  0.84851093     0.28300
H982        H  0.56552619  0.59626947  0.00574804     0.32500
H983        H  0.53921734  0.69294211  0.98026385     0.35400
H984        H  0.54891007  0.60476863  0.83920044     0.28000
H985        H  0.36234981  0.66364672  0.85114109     0.40900
H986        H  0.40091434  0.60476580  0.02599795     0.30900
H987        H  0.39770329  0.58495210  0.96747429     0.38600
H988        H  0.55204566  0.67207064  0.90432821     0.30400
H989        H  0.42283162  0.66339769  0.03909023     0.30500
H990        H  0.57034501  0.61646728  0.01742652     0.30700
Zr991      Zr  0.92061563  0.63715765  0.98085297     2.17500
O992        O  0.87121500  0.63922109  0.02046228    -0.51600
O993        O  0.91064412  0.66935071  0.97358127    -0.74800
O994        O  0.93660560  0.64103403  0.04351771    -0.81600
O995        O  0.86464171  0.61988303  0.90383206    -0.83400
O996        O  0.99459918  0.63797298  0.04857542    -0.79000
O997        O  0.86227818  0.63078663  0.95966990    -0.90600
O998        O  0.94660657  0.68047835  0.93187935    -0.76600
O999        O  0.97689705  0.64962285  0.97556873    -0.86100
O1000       O  0.92880410  0.64390540  0.91985780    -0.85800
O1001       O  0.95889713  0.61402228  0.00138314    -0.72500
O1002       O  0.91427858  0.60944205  0.94877095    -0.84700
Zr1003     Zr  0.01974992  0.60466854  0.90469353     2.26400
Zr1004     Zr  0.01568705  0.62641107  0.99393731     2.06300
Zr1005     Zr  0.92501190  0.61609966  0.88800990     2.10000
Zr1006     Zr  0.98502945  0.65615651  0.91496184     1.78800
O1007       O  0.89750086  0.58916446  0.86448555    -0.93500
O1008       O  0.02210898  0.67859477  0.94249627    -0.41300
O1009       O  0.98194482  0.62808851  0.88399254    -0.77900
O1010       O  0.02480024  0.63355434  0.93354096    -0.96600
O1011       O  0.01023324  0.59794960  0.96498233    -0.89900
O1012       O  0.96261725  0.59274468  0.90798888    -0.92700
C1013       C  0.92171618  0.68218655  0.95392253     1.01000
C1014       C  0.84786245  0.62520612  0.93115807     1.14000
C1015       C  0.96480862  0.64115969  0.06135955     1.04700
O1016       O  0.04960001  0.65209520  0.01371648    -0.94900
O1017       O  0.07594550  0.62266920  0.97943659    -0.90600
O1018       O  0.07858326  0.61115780  0.92433229    -0.83800
C1019       C  0.09280147  0.61782195  0.95195312     1.11400
O1020       O  0.90863493  0.57964286  0.01249037    -0.96900
Zr1021     Zr  0.95263741  0.58675747  0.96883570     1.88900
O1022       O  0.02318814  0.57139966  0.90736905    -0.73500
O1023       O  0.03824774  0.60616974  0.03864270    -0.52800
O1024       O  0.97743800  0.57113235  0.01899020    -0.97400
O1025       O  0.90798504  0.56647762  0.94733926    -0.54700
O1026       O  0.98323314  0.56139174  0.94656742    -0.74000
C1027       C  0.00754793  0.55884264  0.92458758     0.98300
O1028       O  0.07040072  0.59789322  0.86884215    -0.62800
O1029       O  0.89623205  0.63557926  0.84585427    -0.57600
O1030       O  0.01000704  0.60739514  0.84208561    -0.94300
O1031       O  0.95372196  0.61276248  0.83084282    -0.92800
O1032       O  0.96574372  0.66703216  0.85797480    -0.93100
O1033       O  0.03132610  0.66658588  0.87665327    -0.91900
C1034       C  0.98507400  0.61029202  0.82094458     1.17200
H1035       H  0.91153345  0.65213242  0.91130112     0.33100
H1036       H  0.04692706  0.63910831  0.92955362     0.44000
H1037       H  0.96003048  0.58213992  0.89348550     0.37500
H1038       H  0.95458731  0.61092514  0.02565971     0.34000
H1039       H  0.01173133  0.68081350  0.96592620     0.25800
H1040       H  0.01789667  0.60244542  0.05260225     0.31700
H1041       H  0.97221343  0.57882417  0.03960899     0.37600
H1042       H  0.96432588  0.68028476  0.86064371     0.32100
H1043       H  0.91494145  0.64233345  0.83398160     0.30900
H1044       H  0.89646529  0.59120952  0.83878756     0.32600
H1045       H  0.91452325  0.55442850  0.95623133     0.31600
H1046       H  0.03929773  0.65558381  0.86433655     0.35600
H1047       H  0.06350788  0.58809905  0.85261358     0.28300
H1048       H  0.87361273  0.65093248  0.03274193     0.32500
H1049       H  0.89673867  0.59122584  0.01682578     0.35400
H1050       H  0.88723120  0.62730133  0.82762487     0.28000
H1051       H  0.07426898  0.60855361  0.85364533     0.40900
H1052       H  0.06466517  0.64722243  0.03234481     0.30900
H1053       H  0.04379432  0.67214938  0.94757871     0.38600
H1054       H  0.91177820  0.56572121  0.92163072     0.30400
H1055       H  0.04516308  0.59515949  0.02571100     0.30500
H1056       H  0.87481465  0.62995243  0.03879110     0.30700
C1057       C  0.67937428  0.61158038  0.94706677    -0.27900
C1058       C  0.69764329  0.62461490  0.92776298     0.01700
C1059       C  0.67906829  0.63689338  0.90693104     0.29800
C1060       C  0.64301894  0.63589862  0.90538966    -0.19700
C1061       C  0.62468056  0.62290323  0.92483204    -0.29100
C1062       C  0.64333811  0.61064521  0.94574109     0.43800
C1063       C  0.73602793  0.62494386  0.92883175     0.05000
O1064       O  0.69592359  0.65004058  0.88822738    -0.57600
H1065       H  0.62933013  0.64560483  0.88946479     0.17900
O1066       O  0.62670227  0.59748192  0.96458996    -0.64300
H1067       H  0.69316583  0.60184306  0.96280681     0.16400
C1068       C  0.75389575  0.62650753  0.96084972     0.28600
C1069       C  0.79004435  0.62663918  0.96117585    -0.25200
C1070       C  0.80930682  0.62489090  0.92987749    -0.24500
C1071       C  0.79115824  0.62313525  0.89780581     0.40100
C1072       C  0.75503825  0.62323937  0.89754825    -0.27000
O1073       O  0.73622255  0.62855717  0.99189607    -0.58900
H1074       H  0.80298237  0.62802417  0.98620462     0.15700
O1075       O  0.80827846  0.62128572  0.86640387    -0.60300
H1076       H  0.74175639  0.62178954  0.87270770     0.14200
H1077       H  0.62650181  0.58676570  0.94897806     0.46000
H1078       H  0.73709124  0.61659198  0.00345268     0.41400
H1079       H  0.81257221  0.63376738  0.85815252     0.44900
H1080       H  0.69366507  0.66114123  0.90260346     0.36300
C1081       C  0.25127466  0.64806368  0.92052926    -0.27900
C1082       C  0.23694395  0.63818517  0.94848314     0.01700
C1083       C  0.25831071  0.63232773  0.97583404     0.29800
C1084       C  0.29352592  0.63604965  0.97475786    -0.19700
C1085       C  0.30842145  0.64553385  0.94641115    -0.29100
C1086       C  0.28668943  0.65183621  0.91940214     0.43800
C1087       C  0.19994116  0.63337847  0.94868192     0.05000
O1088       O  0.24533882  0.62180338  0.00245971    -0.57600
H1089       H  0.30937981  0.63069947  0.99562807     0.17900
O1090       O  0.29974602  0.66125112  0.89133987    -0.64300
H1091       H  0.23497836  0.65269728  0.89935668     0.16400
C1092       C  0.17838336  0.63890792  0.97640778     0.28600
C1093       C  0.14421280  0.63308028  0.97774855    -0.25200
C1094       C  0.13041198  0.62188271  0.95131985    -0.24500
C1095       C  0.15219200  0.61645132  0.92335839     0.40100
C1096       C  0.18653841  0.62229268  0.92216066    -0.27000
O1097       O  0.19042791  0.65012308  0.00231582    -0.58900
H1098       H  0.12828080  0.63779831  0.99929123     0.15700
O1099       O  0.14029826  0.60558315  0.89687887    -0.60300
H1100       H  0.20297703  0.61787187  0.90075685     0.14200
H1101       H  0.30229444  0.67382230  0.89984293     0.46000
H1102       H  0.19000541  0.66238111  0.99195679     0.41400
H1103       H  0.14655875  0.59316221  0.90396839     0.44900
H1104       H  0.24511244  0.62964121  0.02360028     0.36300
C1105       C  0.45841756  0.48323681  0.98531268    -0.27900
C1106       C  0.48403141  0.49492315  0.99837397     0.01700
C1107       C  0.51039501  0.48779633  0.01917152     0.29800
C1108       C  0.51141128  0.46942076  0.02611957    -0.19700
C1109       C  0.48657332  0.45744035  0.01242958    -0.29100
C1110       C  0.45947748  0.46460452  0.99229745     0.43800
C1111       C  0.48479205  0.51432278  0.98882072     0.05000
O1112       O  0.53618700  0.49860575  0.03192395    -0.57600
H1113       H  0.53274310  0.46454697  0.04164687     0.17900
O1114       O  0.43419323  0.45363344  0.97912105    -0.64300
H1115       H  0.43770118  0.48856465  0.96948326     0.16400
C1116       C  0.48480023  0.51964752  0.95334826     0.28600
C1117       C  0.48750423  0.53788712  0.94468909    -0.25200
C1118       C  0.49071175  0.55115507  0.97094030    -0.24500
C1119       C  0.49149394  0.54585503  0.00640750     0.40100
C1120       C  0.48839628  0.52756636  0.01513721    -0.27000
O1121       O  0.48228045  0.50712499  0.92690929    -0.58900
H1122       H  0.48653320  0.54173270  0.91721797     0.15700
O1123       O  0.49386219  0.55844068  0.03273968    -0.60300
H1124       H  0.48847717  0.52370875  0.04260479     0.14200
H1125       H  0.41656681  0.45290188  0.99800441     0.46000
H1126       H  0.50634780  0.50437447  0.92006558     0.41400
H1127       H  0.46991281  0.56245876  0.03715784     0.44900
H1128       H  0.55383495  0.49895931  0.01302332     0.36300
C1129       C  0.80814889  0.36342914  0.04628706    -0.27900
C1130       C  0.78953847  0.37732500  0.03034003     0.01700
C1131       C  0.80752280  0.39190995  0.01511372     0.29800
C1132       C  0.84367394  0.39236263  0.01599775    -0.19700
C1133       C  0.86220793  0.37849196  0.03231172    -0.29100
C1134       C  0.84405888  0.36393333  0.04746539     0.43800
C1135       C  0.75139096  0.37630005  0.03043303     0.05000
O1136       O  0.78993690  0.40612259  0.00082889    -0.57600
H1137       H  0.85720135  0.40369389  0.00442150     0.17900
O1138       O  0.86127473  0.34965572  0.06198681    -0.64300
H1139       H  0.79471713  0.35201352  0.05768321     0.16400
C1140       C  0.73257229  0.37593963  0.99893822     0.28600
C1141       C  0.69672316  0.37393965  0.99989641    -0.25200
C1142       C  0.67885500  0.37205450  0.03205162    -0.24500
C1143       C  0.69792861  0.37253228  0.06359935     0.40100
C1144       C  0.73377363  0.37449988  0.06253112    -0.27000
O1145       O  0.74903210  0.37711843  0.96703941    -0.58900
H1146       H  0.68297722  0.37360422  0.97518432     0.15700
O1147       O  0.68197281  0.37114466  0.09570910    -0.60300
H1148       H  0.74795491  0.37467702  0.08700195     0.14200
H1149       H  0.85984250  0.35155130  0.08777325     0.46000
H1150       H  0.75187940  0.36448798  0.95900077     0.41400
H1151       H  0.67782793  0.38374344  0.10334308     0.44900
H1152       H  0.79408428  0.40534935  0.97511963     0.36300
C1153       C  0.30505223  0.39130532  0.02208816    -0.27900
C1154       C  0.28832985  0.37796760  0.04196308     0.01700
C1155       C  0.30761286  0.36734850  0.06530363     0.29800
C1156       C  0.34313278  0.37005185  0.06824701    -0.19700
C1157       C  0.36011349  0.38322969  0.04801579    -0.29100
C1158       C  0.34059287  0.39402833  0.02501847     0.43800
C1159       C  0.25092751  0.37491421  0.03744504     0.05000
O1160       O  0.29231015  0.35350639  0.08353369    -0.57600
H1161       H  0.35760130  0.36127233  0.08544073     0.17900
O1162       O  0.35598444  0.40710921  0.00490724    -0.64300
H1163       H  0.29046711  0.39960642  0.00411027     0.16400
C1164       C  0.22820976  0.37597014  0.06626255     0.28600
C1165       C  0.19322150  0.37238118  0.06169576    -0.25200
C1166       C  0.17994491  0.36806453  0.02837250    -0.24500
C1167       C  0.20265422  0.36748345  0.99928026     0.40100
C1168       C  0.23780670  0.37089173  0.00400456    -0.27000
O1169       O  0.23985959  0.38074764  0.09897302    -0.58900
H1170       H  0.17630619  0.37334381  0.08433523     0.15700
O1171       O  0.19094860  0.36348769  0.96619349    -0.60300
H1172       H  0.25499666  0.37014834  0.98154121     0.14200
H1173       H  0.35377632  0.41836977  0.01879779     0.46000
H1174       H  0.24079419  0.39410549  0.09879399     0.41400
H1175       H  0.19239911  0.35018102  0.96425929     0.44900
H1176       H  0.29273123  0.35724193  0.10858058     0.36300
C1177       C  0.97830182  0.47506650  0.94616381    -0.27900
C1178       C  0.01106057  0.48270001  0.94008663     0.01700
C1179       C  0.04041294  0.47208842  0.94597032     0.29800
C1180       C  0.03698521  0.45471333  0.95957983    -0.19700
C1181       C  0.00444404  0.44729931  0.96695292    -0.29100
C1182       C  0.97488021  0.45738158  0.95912151     0.43800
C1183       C  0.01479457  0.50215493  0.93113453     0.05000
O1184       O  0.07273080  0.47878906  0.93945461    -0.57600
H1185       H  0.06006760  0.44703189  0.96491131     0.17900
O1186       O  0.94278695  0.45064530  0.96648056    -0.64300
H1187       H  0.95538203  0.48307983  0.94233708     0.16400
C1188       C  0.99680261  0.51006339  0.90301241     0.28600
C1189       C  0.99824452  0.52881483  0.89786060    -0.25200
C1190       C  0.01740987  0.53985358  0.92055569    -0.24500
C1191       C  0.03683266  0.53183356  0.94738284     0.40100
C1192       C  0.03543872  0.51319036  0.95252681    -0.27000
O1193       O  0.97735386  0.49961970  0.88087306    -0.58900
H1194       H  0.98233521  0.53486907  0.87776722     0.15700
O1195       O  0.05433944  0.54232281  0.97107842    -0.60300
H1196       H  0.04904605  0.50745929  0.97464733     0.14200
H1197       H  0.93588311  0.44400710  0.94498206     0.46000
H1198       H  0.95310537  0.50199128  0.88760887     0.41400
H1199       H  0.07649205  0.54526269  0.95938075     0.44900
H1200       H  0.07752226  0.47582117  0.91447950     0.36300
C1201       C  0.49361550  0.65450272  0.21788444    -0.27900
C1202       C  0.51426163  0.64211780  0.19973862     0.01700
C1203       C  0.54380782  0.63516787  0.21631256     0.29800
C1204       C  0.55121899  0.63992176  0.25122088    -0.19700
C1205       C  0.52906899  0.65132075  0.27009893    -0.29100
C1206       C  0.50078222  0.65909502  0.25271793     0.43800
C1207       C  0.50491434  0.63686015  0.16335811     0.05000
O1208       O  0.56443967  0.62294507  0.19930208    -0.57600
H1209       H  0.57252793  0.63345240  0.26442005     0.17900
O1210       O  0.47849830  0.67019336  0.27048511    -0.64300
H1211       H  0.47131249  0.66030790  0.20525375     0.16400
C1212       C  0.47214645  0.62977207  0.15523733     0.28600
C1213       C  0.46340392  0.62601313  0.12013546    -0.25200
C1214       C  0.48714236  0.62910641  0.09287859    -0.24500
C1215       C  0.51997862  0.63609223  0.10128115     0.40100
C1216       C  0.52851727  0.63989984  0.13616547    -0.27000
O1217       O  0.44893524  0.62604152  0.18154316    -0.58900
H1218       H  0.43812942  0.62065418  0.11423877     0.15700
O1219       O  0.54312625  0.64045468  0.07528505    -0.60300
H1220       H  0.55344889  0.64574563  0.14188998     0.14200
H1221       H  0.48750150  0.68254982  0.26663537     0.46000
H1222       H  0.43108363  0.63552064  0.17978974     0.41400
H1223       H  0.56178252  0.63142074  0.07720077     0.44900
H1224       H  0.55567613  0.61094597  0.20659075     0.36300
C1225       C  0.51408613  0.63294691  0.65204876    -0.27900
C1226       C  0.48208299  0.64100216  0.65929108     0.01700
C1227       C  0.45998193  0.64489461  0.63113004     0.29800
C1228       C  0.46994222  0.64070230  0.59652951    -0.19700
C1229       C  0.50196122  0.63261595  0.58919605    -0.29100
C1230       C  0.52401480  0.62869234  0.61743877     0.43800
C1231       C  0.47249020  0.64525707  0.69639598     0.05000
O1232       O  0.42937268  0.65358325  0.63702893    -0.57600
H1233       H  0.45272523  0.64411970  0.57522687     0.17900
O1234       O  0.55505703  0.62045225  0.61161690    -0.64300
H1235       H  0.53132650  0.62975040  0.67345453     0.16400
C1236       C  0.44394075  0.63703797  0.71302787     0.28600
C1237       C  0.43855991  0.63925163  0.74939620    -0.25200
C1238       C  0.46168283  0.64938857  0.76971041    -0.24500
C1239       C  0.48871812  0.65862007  0.75259134     0.40100
C1240       C  0.49390723  0.65653742  0.71630049    -0.27000
O1241       O  0.42242130  0.62590154  0.69448762    -0.58900
H1242       H  0.41785308  0.63191243  0.76212463     0.15700
O1243       O  0.51063912  0.66944790  0.77139286    -0.60300
H1244       H  0.51555986  0.66323375  0.70386296     0.14200
H1245       H  0.55043923  0.60738027  0.61444755     0.46000
H1246       H  0.43387396  0.61397215  0.69441162     0.41400
H1247       H  0.53219814  0.66243961  0.77372654     0.44900
H1248       H  0.41126811  0.64438344  0.63299068     0.36300
C1249       C  0.80982649  0.61936400  0.41359412    -0.27900
C1250       C  0.79531655  0.63146439  0.43781635     0.01700
C1251       C  0.81633593  0.63939634  0.46356613     0.29800
C1252       C  0.85127014  0.63511293  0.46509597    -0.19700
C1253       C  0.86603440  0.62302309  0.44092194    -0.29100
C1254       C  0.84489484  0.61507078  0.41502849     0.43800
C1255       C  0.75781962  0.63479395  0.43781643     0.05000
O1256       O  0.80288974  0.65137473  0.48740701    -0.57600
H1257       H  0.86698334  0.64154945  0.48496662     0.17900
O1258       O  0.85800282  0.60288432  0.39139048    -0.64300
H1259       H  0.79373887  0.61293165  0.39403205     0.16400
C1260       C  0.74126884  0.64296309  0.40917336     0.28600
C1261       C  0.70550587  0.64555602  0.40996291    -0.25200
C1262       C  0.68565422  0.63984512  0.43899080    -0.24500
C1263       C  0.70280519  0.63192634  0.46795418     0.40100
C1264       C  0.73838926  0.62947711  0.46704592    -0.27000
O1265       O  0.75995455  0.64880575  0.38069615    -0.58900
H1266       H  0.69331524  0.65183729  0.38755811     0.15700
O1267       O  0.68509243  0.62581340  0.49686327    -0.60300
H1268       H  0.75088125  0.62307536  0.48917499     0.14200
H1269       H  0.85848924  0.59123021  0.40412885     0.46000
H1270       H  0.75683172  0.63937705  0.36247623     0.41400
H1271       H  0.68631665  0.63577024  0.51424143     0.44900
H1272       H  0.80558302  0.66338152  0.47628459     0.36300
C1273       C  0.31243100  0.61541728  0.44878065    -0.27900
C1274       C  0.29460962  0.62499419  0.42290315     0.01700
C1275       C  0.31312243  0.63262699  0.39469050     0.29800
C1276       C  0.34900104  0.63099240  0.39318139    -0.19700
C1277       C  0.36716977  0.62174790  0.41952349    -0.29100
C1278       C  0.34823932  0.61356382  0.44710245     0.43800
C1279       C  0.25670432  0.62693937  0.42562806     0.05000
O1280       O  0.29654976  0.64268697  0.36969881    -0.57600
H1281       H  0.36263755  0.63755551  0.37182677     0.17900
O1282       O  0.36434849  0.60396616  0.47300104    -0.64300
H1283       H  0.29845267  0.60928352  0.47040215     0.16400
C1284       C  0.23524068  0.62089881  0.39841947     0.28600
C1285       C  0.19967799  0.62326093  0.40085817    -0.25200
C1286       C  0.18439967  0.63130034  0.43067350    -0.24500
C1287       C  0.20598031  0.63684781  0.45851634     0.40100
C1288       C  0.24177531  0.63465808  0.45578838    -0.27000
O1289       O  0.24873940  0.61233602  0.36951805    -0.58900
H1290       H  0.18399195  0.61835184  0.37939682     0.15700
O1291       O  0.19254625  0.64425717  0.48861360    -0.60300
H1292       H  0.25799165  0.63914405  0.47720281     0.14200
H1293       H  0.36521081  0.59139444  0.46415994     0.46000
H1294       H  0.24819922  0.59932103  0.37541079     0.41400
H1295       H  0.19260295  0.65744531  0.48445480     0.44900
H1296       H  0.29853062  0.63569777  0.34753194     0.36300
C1297       C  0.96410582  0.63267520  0.23486307    -0.27900
C1298       C  0.98922727  0.63298016  0.20843854     0.01700
C1299       C  0.02361443  0.62893511  0.21739684     0.29800
C1300       C  0.03210237  0.62436916  0.25219682    -0.19700
C1301       C  0.00660788  0.62356498  0.27848603    -0.29100
C1302       C  0.97241577  0.62814583  0.26940316     0.43800
C1303       C  0.97892229  0.63724091  0.17168673     0.05000
O1304       O  0.04907020  0.62923515  0.19232104    -0.57600
H1305       H  0.05859383  0.62131204  0.25853423     0.17900
O1306       O  0.94681390  0.62881619  0.29427713    -0.64300
H1307       H  0.93778899  0.63625952  0.22881920     0.16400
C1308       C  0.95185619  0.62776599  0.15518721     0.28600
C1309       C  0.94447479  0.63082299  0.11961866    -0.25200
C1310       C  0.96393780  0.64314747  0.09993642    -0.24500
C1311       C  0.98934303  0.65351373  0.11702938     0.40100
C1312       C  0.99655949  0.65058312  0.15261638    -0.27000
O1313       O  0.93470220  0.61427270  0.17263877    -0.58900
H1314       H  0.92559090  0.62236923  0.10667918     0.15700
O1315       O  0.00893659  0.66565008  0.09848931    -0.60300
H1316       H  0.01680322  0.65833458  0.16503702     0.14200
H1317       H  0.94748964  0.64128597  0.30368396     0.46000
H1318       H  0.91152245  0.61919925  0.17776799     0.41400
H1319       H  0.99493675  0.67679359  0.09761750     0.44900
H1320       H  0.04884901  0.61703008  0.18167478     0.36300
C1321       C  0.97944596  0.61307623  0.72121430    -0.27900
C1322       C  0.01225021  0.61986460  0.71253181     0.01700
C1323       C  0.03649475  0.62234075  0.73946828     0.29800
C1324       C  0.02747702  0.61846410  0.77434242    -0.19700
C1325       C  0.99424962  0.61230685  0.78324092    -0.29100
C1326       C  0.97026051  0.60946007  0.75619263     0.43800
C1327       C  0.01965701  0.62529637  0.67561588     0.05000
O1328       O  0.06804984  0.62987766  0.73238154    -0.57600
H1329       H  0.04625737  0.62108996  0.79469449     0.17900
O1330       O  0.93799285  0.60292454  0.76354177    -0.64300
H1331       H  0.96058296  0.61086238  0.70075659     0.16400
C1332       C  0.04879976  0.61903016  0.65699413     0.28600
C1333       C  0.05303964  0.62326595  0.62125730    -0.25200
C1334       C  0.02795269  0.63320840  0.60338681    -0.24500
C1335       C  0.99966196  0.64010621  0.62239433     0.40100
C1336       C  0.99585671  0.63624398  0.65813158    -0.27000
O1337       O  0.07209369  0.60782175  0.67274287    -0.58900
H1338       H  0.07452903  0.61754166  0.60688144     0.15700
O1339       O  0.97454999  0.64983324  0.60578221    -0.60300
H1340       H  0.97351758  0.64136435  0.67202496     0.14200
H1341       H  0.92268670  0.61359778  0.76311674     0.46000
H1342       H  0.06409280  0.59543637  0.66726780     0.41400
H1343       H  0.98042810  0.66264259  0.61022839     0.44900
H1344       H  0.08514055  0.62037447  0.73776791     0.36300
C1345       C  0.98450941  0.35182972  0.24143281    -0.27900
C1346       C  0.00974749  0.36095371  0.26077447     0.01700
C1347       C  0.04144108  0.36512345  0.24435986     0.29800
C1348       C  0.04628157  0.36133229  0.20837853    -0.19700
C1349       C  0.01969340  0.35355914  0.18852203    -0.29100
C1350       C  0.98929937  0.34804902  0.20583702     0.43800
C1351       C  0.00134942  0.36642344  0.29746212     0.05000
O1352       O  0.06770255  0.37277359  0.26328541    -0.57600
H1353       H  0.06994196  0.36552439  0.19559716     0.17900
O1354       O  0.96313985  0.33988302  0.18764130    -0.64300
H1355       H  0.96015269  0.34830442  0.25359887     0.16400
C1356       C  0.00385326  0.38454024  0.30861712     0.28600
C1357       C  0.99297572  0.38945454  0.34251577    -0.25200
C1358       C  0.97815019  0.37667618  0.36511593    -0.24500
C1359       C  0.97544711  0.35863544  0.35398799     0.40100
C1360       C  0.98700776  0.35363859  0.32050150    -0.27000
O1361       O  0.01617562  0.39761550  0.28642481    -0.58900
H1362       H  0.99603839  0.40328235  0.35118040     0.15700
O1363       O  0.96260201  0.34565940  0.37616136    -0.60300
H1364       H  0.98478418  0.33966690  0.31247097     0.14200
H1365       H  0.96582953  0.32681031  0.19222972     0.46000
H1366       H  0.99556836  0.40259295  0.27465828     0.41400
H1367       H  0.98307447  0.33976701  0.38650575     0.44900
H1368       H  0.07153869  0.38485821  0.25282342     0.36300
C1369       C  0.96605310  0.35355287  0.82216136    -0.27900
C1370       C  0.99048734  0.35762837  0.79620130     0.01700
C1371       C  0.02213299  0.36543353  0.80594134     0.29800
C1372       C  0.02896635  0.36902576  0.84134924    -0.19700
C1373       C  0.00434267  0.36520723  0.86732112    -0.29100
C1374       C  0.97268022  0.35733220  0.85749556     0.43800
C1375       C  0.98181908  0.35500920  0.75879833     0.05000
O1376       O  0.04552910  0.37066853  0.78079966    -0.57600
H1377       H  0.05318365  0.37529410  0.84838639     0.17900
O1378       O  0.94848405  0.35275011  0.88232124    -0.64300
H1379       H  0.94163793  0.34754807  0.81494726     0.16400
C1380       C  0.00354404  0.34512815  0.73627374     0.28600
C1381       C  0.99835172  0.34569129  0.69999793    -0.25200
C1382       C  0.97096053  0.35557696  0.68589143    -0.24500
C1383       C  0.94742845  0.36411026  0.70864236     0.40100
C1384       C  0.95296761  0.36377504  0.74491601    -0.27000
O1385       O  0.03069641  0.33550072  0.74935729    -0.58900
H1386       H  0.01638338  0.33887108  0.68274364     0.15700
O1387       O  0.92045079  0.37390467  0.69561359    -0.60300
H1388       H  0.93586027  0.37128374  0.76205105     0.14200
H1389       H  0.93098317  0.36244014  0.88136492     0.46000
H1390       H  0.02068720  0.32384512  0.75706967     0.41400
H1391       H  0.92998393  0.38608115  0.69089949     0.44900
H1392       H  0.06527408  0.36233510  0.78330768     0.36300
C1393       C  0.99553895  0.47308817  0.41388040    -0.27900
C1394       C  0.98694698  0.48846536  0.43363818     0.01700
C1395       C  0.98192885  0.48670661  0.47016450     0.29800
C1396       C  0.98458616  0.46983357  0.48617338    -0.19700
C1397       C  0.99273406  0.45431603  0.46654123    -0.29100
C1398       C  0.99870465  0.45614801  0.43002743     0.43800
C1399       C  0.98566981  0.50656731  0.41692352     0.05000
O1400       O  0.97468897  0.50147216  0.49063039    -0.57600
H1401       H  0.98005491  0.46892811  0.51425106     0.17900
O1402       O  0.00597781  0.44140452  0.40954720    -0.64300
H1403       H  0.99956856  0.47418878  0.38575936     0.16400
C1404       C  0.01464467  0.51345051  0.39916517     0.28600
C1405       C  0.01628003  0.53175138  0.39065866    -0.25200
C1406       C  0.98953242  0.54358796  0.40001045    -0.24500
C1407       C  0.95913587  0.53639317  0.41470187     0.40100
C1408       C  0.95727223  0.51794647  0.42273677    -0.27000
O1409       O  0.04315188  0.50292596  0.39379805    -0.58900
H1410       H  0.03994974  0.53699741  0.37946013     0.15700
O1411       O  0.93250604  0.54745667  0.42442488    -0.60300
H1412       H  0.93453444  0.51277681  0.43589793     0.14200
H1413       H  0.03129607  0.44162925  0.40625406     0.46000
H1414       H  0.04238121  0.49948443  0.36860940     0.41400
H1415       H  0.93712877  0.55075456  0.44925402     0.44900
H1416       H  0.99738232  0.50611703  0.49833292     0.36300
C1417       C  0.68279961  0.38131422  0.57208028    -0.27900
C1418       C  0.69854611  0.37780984  0.53950854     0.01700
C1419       C  0.67807579  0.37626349  0.50924190     0.29800
C1420       C  0.64242918  0.37830785  0.51173298    -0.19700
C1421       C  0.62648326  0.38182631  0.54423059    -0.29100
C1422       C  0.64703775  0.38341830  0.57458929     0.43800
C1423       C  0.73630448  0.37557380  0.53712186     0.05000
O1424       O  0.69259082  0.37176673  0.47745628    -0.57600
H1425       H  0.62714343  0.37665500  0.48818113     0.17900
O1426       O  0.63250683  0.38706202  0.60675279    -0.64300
H1427       H  0.69832238  0.38256715  0.59555867     0.16400
C1428       C  0.75603955  0.38651541  0.51450200     0.28600
C1429       C  0.79123589  0.38337097  0.51044237    -0.25200
C1430       C  0.80768008  0.36969567  0.52950607    -0.24500
C1431       C  0.78807099  0.35908642  0.55303281     0.40100
C1432       C  0.75263718  0.36207560  0.55667101    -0.27000
O1433       O  0.74121869  0.40048344  0.49651823    -0.58900
H1434       H  0.80592519  0.39205809  0.49306609     0.15700
O1435       O  0.80316002  0.34566871  0.57229859    -0.60300
H1436       H  0.73775659  0.35361755  0.57431100     0.14200
H1437       H  0.63499657  0.40026989  0.60991860     0.46000
H1438       H  0.73941578  0.41046181  0.51380219     0.41400
H1439       H  0.79848145  0.33441756  0.55904081     0.44900
H1440       H  0.69021595  0.38262997  0.46249501     0.36300
C1441       C  0.25373704  0.37401957  0.55324572    -0.27900
C1442       C  0.23643612  0.37217646  0.52116042     0.01700
C1443       C  0.25549929  0.36842586  0.49046239     0.29800
C1444       C  0.29129098  0.36643532  0.49229880    -0.19700
C1445       C  0.30862003  0.36801987  0.52459943    -0.29100
C1446       C  0.28937749  0.37204505  0.55516657     0.43800
C1447       C  0.19849998  0.37408391  0.52057275     0.05000
O1448       O  0.23942124  0.36659882  0.45861873    -0.57600
H1449       H  0.30550889  0.36360985  0.46835653     0.17900
O1450       O  0.30513370  0.37466305  0.58696203    -0.64300
H1451       H  0.23953143  0.37730590  0.57697602     0.16400
C1452       C  0.17790441  0.36402618  0.54392710     0.28600
C1453       C  0.14247768  0.36681178  0.54520380    -0.25200
C1454       C  0.12659112  0.37940400  0.52301555    -0.24500
C1455       C  0.14709392  0.38927674  0.49910354     0.40100
C1456       C  0.18279616  0.38655834  0.49801256    -0.27000
O1457       O  0.19220553  0.35138788  0.56570037    -0.58900
H1458       H  0.12730984  0.35882743  0.56341765     0.15700
O1459       O  0.13271496  0.40184599  0.47726042    -0.60300
H1460       H  0.19834442  0.39454130  0.48014291     0.14200
H1461       H  0.31066616  0.38771384  0.58780632     0.46000
H1462       H  0.19221038  0.34003290  0.55191930     0.41400
H1463       H  0.13504096  0.41349216  0.48986365     0.44900
H1464       H  0.23357038  0.35361832  0.45676876     0.36300
C1465       C  0.52727799  0.37086266  0.33331484    -0.27900
C1466       C  0.50318363  0.37360965  0.30663797     0.01700
C1467       C  0.47151175  0.38186395  0.31520510     0.29800
C1468       C  0.46401310  0.38669305  0.35018824    -0.19700
C1469       C  0.48808271  0.38375692  0.37699417    -0.29100
C1470       C  0.52001953  0.37576795  0.36807256     0.43800
C1471       C  0.51090960  0.36722945  0.27030325     0.05000
O1472       O  0.44760856  0.38512631  0.28958640    -0.57600
H1473       H  0.43928541  0.39263266  0.35638508     0.17900
O1474       O  0.54381490  0.37178415  0.39341730    -0.64300
H1475       H  0.55146719  0.36427089  0.32741850     0.16400
C1476       C  0.54079033  0.37284751  0.25214177     0.28600
C1477       C  0.54589334  0.36783421  0.21686277    -0.25200
C1478       C  0.52154975  0.35715949  0.19925116    -0.24500
C1479       C  0.49323728  0.35029897  0.21844125     0.40100
C1480       C  0.48804371  0.35540001  0.25352079    -0.27000
O1481       O  0.56361022  0.38448453  0.26767118    -0.58900
H1482       H  0.56752760  0.37348231  0.20254668     0.15700
O1483       O  0.46937936  0.33939742  0.20251690    -0.60300
H1484       H  0.46555335  0.35045045  0.26743366     0.14200
H1485       H  0.53757066  0.35956905  0.40192598     0.46000
H1486       H  0.58377768  0.37699377  0.27388986     0.41400
H1487       H  0.47837630  0.32698489  0.20524592     0.44900
H1488       H  0.45154915  0.39780852  0.28238358     0.36300
C1489       C  0.48468907  0.35188262  0.75372664    -0.27900
C1490       C  0.46810111  0.36595819  0.77179642     0.01700
C1491       C  0.44542678  0.37722971  0.75297413     0.29800
C1492       C  0.44074388  0.37468796  0.71665877    -0.19700
C1493       C  0.45892470  0.36127740  0.69847458    -0.29100
C1494       C  0.48075959  0.34972321  0.71736694     0.43800
C1495       C  0.47728306  0.36962467  0.80925446     0.05000
O1496       O  0.43053849  0.39186123  0.76899734    -0.57600
H1497       H  0.42492391  0.38411993  0.70223547     0.17900
O1498       O  0.49915554  0.33658612  0.70024177    -0.64300
H1499       H  0.50198592  0.34297540  0.76762065     0.16400
C1500       C  0.45204776  0.37239580  0.83539578     0.28600
C1501       C  0.46178794  0.37649338  0.86994659    -0.25200
C1502       C  0.49671477  0.37733133  0.87977690    -0.24500
C1503       C  0.52192528  0.37388041  0.85379265     0.40100
C1504       C  0.51213226  0.37031461  0.81900139    -0.27000
O1505       O  0.41774214  0.37071552  0.82777569    -0.58900
H1506       H  0.44166849  0.37856778  0.88931683     0.15700
O1507       O  0.55627849  0.37422993  0.86179352    -0.60300
H1508       H  0.53203317  0.36816503  0.79941746     0.14200
H1509       H  0.52253028  0.34171559  0.69690984     0.46000
H1510       H  0.41269146  0.35764872  0.82975614     0.41400
H1511       H  0.56246235  0.36149844  0.86650607     0.44900
H1512       H  0.40541733  0.38950085  0.76858007     0.36300
C1513       C  0.50636792  0.48220955  0.46415535    -0.27900
C1514       C  0.50053231  0.49508683  0.49068190     0.01700
C1515       C  0.49741166  0.48940249  0.52575224     0.29800
C1516       C  0.49862917  0.47105655  0.53371751    -0.19700
C1517       C  0.50317749  0.45805245  0.50708421    -0.29100
C1518       C  0.50777049  0.46380221  0.47213330     0.43800
C1519       C  0.49961334  0.51447476  0.48168444     0.05000
O1520       O  0.49297846  0.50166562  0.55240500    -0.57600
H1521       H  0.49517369  0.46694500  0.56085000     0.17900
O1522       O  0.51213479  0.45156749  0.44542677    -0.64300
H1523       H  0.50915528  0.48644039  0.43702935     0.16400
C1524       C  0.52768922  0.52231734  0.46419154     0.28600
C1525       C  0.52700687  0.54050751  0.45552488    -0.25200
C1526       C  0.49866033  0.55147633  0.46427732    -0.24500
C1527       C  0.47055027  0.54370696  0.48221721     0.40100
C1528       C  0.47117520  0.52527542  0.49084200    -0.27000
O1529       O  0.55627310  0.51234139  0.45584423    -0.58900
H1530       H  0.54931470  0.54610386  0.44226048     0.15700
O1531       O  0.44234550  0.55384126  0.49101721    -0.60300
H1532       H  0.44932951  0.51935113  0.50435801     0.14200
H1533       H  0.48865732  0.44908152  0.43651617     0.46000
H1534       H  0.57062554  0.51248504  0.47734328     0.41400
H1535       H  0.42777966  0.55388743  0.46966918     0.44900
H1536       H  0.51655921  0.50487131  0.56009029     0.36300
C1537       C  0.61229320  0.27266430  0.09058296    -0.27900
C1538       C  0.61121893  0.26062487  0.06216004     0.01700
C1539       C  0.59131718  0.26503592  0.03251947     0.29800
C1540       C  0.57368659  0.28151265  0.03129443    -0.19700
C1541       C  0.57579816  0.29391902  0.05921338    -0.29100
C1542       C  0.59483513  0.28912557  0.08936990     0.43800
C1543       C  0.63074945  0.24346672  0.06412337     0.05000
O1544       O  0.58809026  0.25306547  0.00517129    -0.57600
H1545       H  0.55902299  0.28474492  0.00798456     0.17900
O1546       O  0.59680615  0.30044801  0.11782835    -0.64300
H1547       H  0.62718112  0.26938219  0.11372576     0.16400
C1548       C  0.65549946  0.23889971  0.03850703     0.28600
C1549       C  0.67314050  0.22251101  0.04071341    -0.25200
C1550       C  0.66693163  0.21039176  0.06855848    -0.24500
C1551       C  0.64318653  0.21544426  0.09508121     0.40100
C1552       C  0.62531356  0.23177180  0.09257469    -0.27000
O1553       O  0.66274953  0.25037143  0.01119132    -0.58900
H1554       H  0.69142581  0.21921879  0.02012699     0.15700
O1555       O  0.63669027  0.20445720  0.12332680    -0.60300
H1556       H  0.60676089  0.23522989  0.11282015     0.14200
H1557       H  0.57683494  0.29721040  0.13287787     0.46000
H1558       H  0.67960974  0.25913203  0.02073268     0.41400
H1559       H  0.65164020  0.20907368  0.14240658     0.44900
H1560       H  0.60003602  0.25875835  0.98491750     0.36300
C1561       C  0.94306802  0.14088002  0.07215589    -0.27900
C1562       C  0.96136932  0.12673128  0.05660802     0.01700
C1563       C  0.94347666  0.11192468  0.04238948     0.29800
C1564       C  0.90748997  0.11134236  0.04445083    -0.19700
C1565       C  0.88921792  0.12537642  0.06077845    -0.29100
C1566       C  0.90734382  0.14036940  0.07413962     0.43800
C1567       C  0.99920318  0.12753873  0.05694732     0.05000
O1568       O  0.96101795  0.09759792  0.02826283    -0.57600
H1569       H  0.89394349  0.09974168  0.03402777     0.17900
O1570       O  0.89041768  0.15471397  0.08896359    -0.64300
H1571       H  0.95663915  0.15241805  0.08283390     0.16400
C1572       C  0.01843766  0.12802336  0.02558560     0.28600
C1573       C  0.05423486  0.12973717  0.02695830    -0.25200
C1574       C  0.07124684  0.13108538  0.05944004    -0.24500
C1575       C  0.05171025  0.13088373  0.09078576     0.40100
C1576       C  0.01601210  0.12916844  0.08930726    -0.27000
O1577       O  0.00247826  0.12708379  0.99353861    -0.58900
H1578       H  0.06871786  0.12977855  0.00255031     0.15700
O1579       O  0.06708652  0.13299723  0.12294312    -0.60300
H1580       H  0.00130179  0.12917028  0.11358923     0.14200
H1581       H  0.88486059  0.16279712  0.06903467     0.46000
H1582       H  0.99666389  0.13971759  0.98755844     0.41400
H1583       H  0.06856196  0.12068262  0.13293681     0.44900
H1584       H  0.95736883  0.09840265  0.00251753     0.36300
C1585       C  0.44685617  0.12422681  0.03126564    -0.27900
C1586       C  0.46150737  0.12222566  0.06466358     0.01700
C1587       C  0.44010298  0.11922056  0.09392018     0.29800
C1588       C  0.40450986  0.11827813  0.08956453    -0.19700
C1589       C  0.38963114  0.12015797  0.05608876    -0.29100
C1590       C  0.41129917  0.12310146  0.02672749     0.43800
C1591       C  0.49919199  0.12333978  0.06846007     0.05000
O1592       O  0.45374027  0.11710130  0.12685535    -0.57600
H1593       H  0.38855367  0.11616206  0.11262037     0.17900
O1594       O  0.39815419  0.12498807  0.99351135    -0.64300
H1595       H  0.46308624  0.12676762  0.00856131     0.16400
C1596       C  0.52068537  0.11220569  0.04820883     0.28600
C1597       C  0.55622860  0.11439635  0.04985503    -0.25200
C1598       C  0.57111484  0.12779939  0.07122975    -0.24500
C1599       C  0.54958637  0.13831766  0.09293797     0.40100
C1600       C  0.51383375  0.13610540  0.09125022    -0.27000
O1601       O  0.50712606  0.09897541  0.02709322    -0.58900
H1602       H  0.57214536  0.10571715  0.03366039     0.15700
O1603       O  0.56292037  0.15143300  0.11435830    -0.60300
H1604       H  0.49744405  0.14477441  0.10695091     0.14200
H1605       H  0.39986775  0.11285291  0.98268957     0.46000
H1606       H  0.51008301  0.10340782  0.00266118     0.41400
H1607       H  0.56506228  0.14566779  0.13776242     0.44900
H1608       H  0.45814695  0.10399617  0.12912911     0.36300
C1609       C  0.11556063  0.26671241  0.08432953    -0.27900
C1610       C  0.11409922  0.25498411  0.05526554     0.01700
C1611       C  0.09472899  0.26014520  0.02572369     0.29800
C1612       C  0.07726930  0.27658823  0.02552028    -0.19700
C1613       C  0.07918830  0.28853917  0.05416158    -0.29100
C1614       C  0.09846902  0.28338832  0.08389784     0.43800
C1615       C  0.13250801  0.23736893  0.05564593     0.05000
O1616       O  0.09337773  0.24939367  0.99638913    -0.57600
H1617       H  0.06311936  0.28025584  0.00212063     0.17900
O1618       O  0.10085848  0.29449333  0.11264598    -0.64300
H1619       H  0.12984634  0.26290032  0.10753968     0.16400
C1620       C  0.16779826  0.23619601  0.06379378     0.28600
C1621       C  0.18465939  0.21947621  0.06241316    -0.25200
C1622       C  0.16695179  0.20374134  0.05252219    -0.24500
C1623       C  0.13159629  0.20495416  0.04451104     0.40100
C1624       C  0.11473177  0.22156518  0.04642065    -0.27000
O1625       O  0.18641341  0.25143620  0.07132929    -0.58900
H1626       H  0.21184044  0.21888275  0.06846859     0.15700
O1627       O  0.11305672  0.18996449  0.03506391    -0.60300
H1628       H  0.08750100  0.22210017  0.04057474     0.14200
H1629       H  0.08065725  0.29144015  0.12751758     0.46000
H1630       H  0.19055603  0.25098581  0.09702837     0.41400
H1631       H  0.10634036  0.18413747  0.05753480     0.44900
H1632       H  0.11272925  0.25348612  0.98128727     0.36300
C1633       C  0.83865139  0.75829257  0.98754812    -0.27900
C1634       C  0.85192913  0.75155785  0.95576183     0.01700
C1635       C  0.84859468  0.76203664  0.92503850     0.29800
C1636       C  0.83423516  0.77937258  0.92691597    -0.19700
C1637       C  0.82236017  0.78644770  0.95901462    -0.29100
C1638       C  0.82398672  0.77551962  0.98937407     0.43800
C1639       C  0.86993324  0.73382829  0.95534575     0.05000
O1640       O  0.85801036  0.75511110  0.89291184    -0.57600
H1641       H  0.83227654  0.78728869  0.90308455     0.17900
O1642       O  0.81229788  0.78171609  0.02124908    -0.64300
H1643       H  0.84061309  0.75037371  0.01137747     0.16400
C1644       C  0.90352351  0.73216080  0.94164130     0.28600
C1645       C  0.92012646  0.71538546  0.94179052    -0.25200
C1646       C  0.90406346  0.70000112  0.95597151    -0.24500
C1647       C  0.87079627  0.70186412  0.97078645     0.40100
C1648       C  0.85411172  0.71860720  0.97029878    -0.27000
O1649       O  0.92107111  0.74709162  0.92996236    -0.58900
H1650       H  0.94591441  0.71451020  0.93101948     0.15700
O1651       O  0.85414304  0.68744972  0.98575154    -0.60300
H1652       H  0.82850548  0.71967216  0.98146451     0.14200
H1653       H  0.83287384  0.78670066  0.03317108     0.46000
H1654       H  0.92568555  0.74492562  0.90463387     0.41400
H1655       H  0.84108946  0.68175483  0.96632195     0.44900
H1656       H  0.87606502  0.76330669  0.88360707     0.36300
C1657       C  0.76802018  0.01631140  0.05903796    -0.27900
C1658       C  0.76518161  0.01062885  0.02393475     0.01700
C1659       C  0.76426790  0.02378061  0.99712284     0.29800
C1660       C  0.76596750  0.04214854  0.00559252    -0.19700
C1661       C  0.76756110  0.04782898  0.04075113    -0.29100
C1662       C  0.76924964  0.03469651  0.06754326     0.43800
C1663       C  0.76319700  0.99101210  0.01555862     0.05000
O1664       O  0.76028540  0.01887047  0.96260083    -0.57600
H1665       H  0.76401730  0.05199357  0.98466748     0.17900
O1666       O  0.77145108  0.03967162  0.10222286    -0.64300
H1667       H  0.76913539  0.00643586  0.07996597     0.16400
C1668       C  0.78635726  0.98320821  0.99157035     0.28600
C1669       C  0.78409229  0.96484025  0.98365028    -0.25200
C1670       C  0.75907325  0.95359097  0.99943175    -0.24500
C1671       C  0.73619024  0.96138348  0.02404113     0.40100
C1672       C  0.73840754  0.97991790  0.03190957    -0.27000
O1673       O  0.81267817  0.99323385  0.97731866    -0.58900
H1674       H  0.80280425  0.95938581  0.96536217     0.15700
O1675       O  0.71193180  0.95107954  0.04093594    -0.60300
H1676       H  0.72054430  0.98568353  0.05072925     0.14200
H1677       H  0.79571365  0.04342458  0.10563119     0.46000
H1678       H  0.80823453  0.99360961  0.95166063     0.41400
H1679       H  0.69115295  0.95175808  0.02596966     0.44900
H1680       H  0.73507663  0.01811365  0.95899385     0.36300
C1681       C  0.56700058  0.87102024  0.00732826    -0.27900
C1682       C  0.54648019  0.87360901  0.97742719     0.01700
C1683       C  0.56219849  0.87959448  0.94603208     0.29800
C1684       C  0.59797375  0.88177918  0.94432011    -0.19700
C1685       C  0.61860830  0.87850965  0.97378738    -0.29100
C1686       C  0.60273651  0.87346516  0.00574786     0.43800
C1687       C  0.50876854  0.87015769  0.97940178     0.05000
O1688       O  0.54260744  0.88408526  0.91740443    -0.57600
H1689       H  0.60963957  0.88607795  0.91978071     0.17900
O1690       O  0.62195450  0.87033993  0.03529597    -0.64300
H1691       H  0.55539131  0.86663156  0.03182774     0.16400
C1692       C  0.49185949  0.85945221  0.95405871     0.28600
C1693       C  0.45601081  0.85753602  0.95502435    -0.25200
C1694       C  0.43643027  0.86542949  0.98205031    -0.24500
C1695       C  0.45374196  0.87501473  0.00890744     0.40100
C1696       C  0.48941864  0.87750932  0.00711123    -0.27000
O1697       O  0.51009832  0.85067918  0.92829770    -0.58900
H1698       H  0.44349618  0.84975511  0.93460548     0.15700
O1699       O  0.43596073  0.88287640  0.03608819    -0.60300
H1700       H  0.50191811  0.88555720  0.02715213     0.14200
H1701       H  0.62469041  0.85706773  0.03644206     0.46000
H1702       H  0.52050144  0.84011221  0.94010191     0.41400
H1703       H  0.43695331  0.87404309  0.05561659     0.44900
H1704       H  0.54957325  0.87566298  0.89839824     0.36300
C1705       C  0.06425369  0.86624810  0.99791776    -0.27900
C1706       C  0.04590607  0.86842959  0.96645217     0.01700
C1707       C  0.06356021  0.87468328  0.93641541     0.29800
C1708       C  0.09892521  0.87847028  0.93820962    -0.19700
C1709       C  0.11734941  0.87622519  0.96973417    -0.29100
C1710       C  0.09942907  0.87007884  0.99979781     0.43800
C1711       C  0.00800206  0.86544045  0.96677781     0.05000
O1712       O  0.04616098  0.87811129  0.90582688    -0.57600
H1713       H  0.11189225  0.88332201  0.91477494     0.17900
O1714       O  0.11593297  0.86754792  0.03119347    -0.64300
H1715       H  0.05114895  0.86149812  0.02136317     0.16400
C1716       C  0.99097675  0.85436407  0.94208707     0.28600
C1717       C  0.95516282  0.85177984  0.94439899    -0.25200
C1718       C  0.93585949  0.85980924  0.97160332    -0.24500
C1719       C  0.95330788  0.87078284  0.99634586     0.40100
C1720       C  0.98866991  0.87354424  0.99355967    -0.27000
O1721       O  0.00900467  0.84582885  0.91588944    -0.58900
H1722       H  0.94253919  0.84341317  0.92495465     0.15700
O1723       O  0.93596835  0.87969688  0.02258506    -0.60300
H1724       H  0.00110141  0.88228750  0.01252432     0.14200
H1725       H  0.12443710  0.85496127  0.03042968     0.46000
H1726       H  0.01748913  0.83451877  0.92662561     0.41400
H1727       H  0.93846657  0.87202104  0.04375570     0.44900
H1728       H  0.05508208  0.86928150  0.88844850     0.36300
C1729       C  0.35977181  0.76973349  0.94257599    -0.27900
C1730       C  0.37162163  0.76612082  0.90849376     0.01700
C1731       C  0.36697065  0.77903735  0.88189509     0.29800
C1732       C  0.35110340  0.79554768  0.88985607    -0.19700
C1733       C  0.33917946  0.79919122  0.92410799    -0.29100
C1734       C  0.34343512  0.78599703  0.95046635     0.43800
C1735       C  0.39005845  0.74904645  0.90200822     0.05000
O1736       O  0.37798091  0.77569611  0.84820816    -0.57600
H1737       H  0.34781007  0.80543614  0.86921430     0.17900
O1738       O  0.33330248  0.78923677  0.98450168    -0.64300
H1739       H  0.36344905  0.75989935  0.96327605     0.16400
C1740       C  0.42226818  0.74609570  0.91754082     0.28600
C1741       C  0.43705408  0.72895763  0.91667427    -0.25200
C1742       C  0.42012083  0.71440336  0.90038732    -0.24500
C1743       C  0.38870184  0.71776808  0.88274827     0.40100
C1744       C  0.37401755  0.73501140  0.88366641    -0.27000
O1745       O  0.43876365  0.75973142  0.93513052    -0.58900
H1746       H  0.46128415  0.72697137  0.93005920     0.15700
O1747       O  0.37156059  0.70428554  0.86533063    -0.60300
H1748       H  0.34925326  0.73720922  0.87144383     0.14200
H1749       H  0.31152674  0.78241675  0.98759294     0.46000
H1750       H  0.44944038  0.76727179  0.91651445     0.41400
H1751       H  0.35435367  0.69963051  0.88240845     0.44900
H1752       H  0.40308771  0.77808667  0.84843288     0.36300
C1753       C  0.26896447  0.01144009  0.04411518    -0.27900
C1754       C  0.25929862  0.00345887  0.07603242     0.01700
C1755       C  0.25525479  0.01438415  0.10607711     0.29800
C1756       C  0.25911250  0.03322236  0.10334893    -0.19700
C1757       C  0.26656117  0.04127107  0.07070562    -0.29100
C1758       C  0.27256069  0.03010632  0.04126836     0.43800
C1759       C  0.25234048  0.98379641  0.07622273     0.05000
O1760       O  0.24615320  0.00688201  0.13771499    -0.57600
H1761       H  0.25394325  0.04158739  0.12613021     0.17900
O1762       O  0.28008435  0.03740654  0.00899666    -0.64300
H1763       H  0.27256132  0.00314736  0.02090616     0.16400
C1764       C  0.22290703  0.97690675  0.05927816     0.28600
C1765       C  0.22089211  0.95854365  0.05051288    -0.25200
C1766       C  0.24842584  0.94697700  0.05768983    -0.24500
C1767       C  0.27662248  0.95360361  0.07712514     0.40100
C1768       C  0.27824677  0.97187354  0.08661849    -0.27000
O1769       O  0.19706838  0.98828801  0.04904401    -0.58900
H1770       H  0.19935048  0.95375835  0.03508406     0.15700
O1771       O  0.30373076  0.94251199  0.08494767    -0.60300
H1772       H  0.30110130  0.97700064  0.09945470     0.14200
H1773       H  0.30506102  0.04011909  0.00963979     0.46000
H1774       H  0.20276517  0.99169051  0.02447872     0.41400
H1775       H  0.32176048  0.94536967  0.06726472     0.44900
H1776       H  0.22066814  0.00738068  0.13842874     0.36300
C1777       C  0.85413511  0.27931879  0.56708044    -0.27900
C1778       C  0.87230022  0.26345267  0.55950109     0.01700
C1779       C  0.90788736  0.26454560  0.55260733     0.29800
C1780       C  0.92441187  0.28132940  0.55191993    -0.19700
C1781       C  0.90610383  0.29731428  0.55855535    -0.29100
C1782       C  0.87073285  0.29610450  0.56696533     0.43800
C1783       C  0.85380883  0.24591220  0.55767688     0.05000
O1784       O  0.92671473  0.24928808  0.54603074    -0.57600
H1785       H  0.95163530  0.28183614  0.54576050     0.17900
O1786       O  0.85156327  0.31130374  0.57286881    -0.64300
H1787       H  0.82670231  0.27876776  0.57208941     0.16400
C1788       C  0.83395553  0.23956268  0.58613601     0.28600
C1789       C  0.81754846  0.22273370  0.58405751    -0.25200
C1790       C  0.82041456  0.21193667  0.55370441    -0.24500
C1791       C  0.83958177  0.21863382  0.52481965     0.40100
C1792       C  0.85606488  0.23540193  0.52704672    -0.27000
O1793       O  0.83200866  0.24926730  0.61680976    -0.58900
H1794       H  0.80331234  0.21793268  0.60674909     0.15700
O1795       O  0.84269278  0.20890297  0.49428482    -0.60300
H1796       H  0.87071245  0.24024833  0.50465104     0.14200
H1797       H  0.85118390  0.31284089  0.59877850     0.46000
H1798       H  0.80886432  0.25485905  0.61672424     0.41400
H1799       H  0.82149649  0.21152103  0.48081906     0.44900
H1800       H  0.93163197  0.24410640  0.56950208     0.36300
C1801       C  0.78297126  0.15718480  0.34349501    -0.27900
C1802       C  0.75219410  0.16400161  0.32949934     0.01700
C1803       C  0.72631250  0.16993356  0.35278834     0.29800
C1804       C  0.73046829  0.16799894  0.38913526    -0.19700
C1805       C  0.76056451  0.16044397  0.40316012    -0.29100
C1806       C  0.78732970  0.15544002  0.37997344     0.43800
C1807       C  0.74624051  0.16368189  0.29080758     0.05000
O1808       O  0.69634748  0.17717129  0.34024777    -0.57600
H1809       H  0.70962479  0.17200071  0.40645163     0.17900
O1810       O  0.81701184  0.14785180  0.39245221    -0.64300
H1811       H  0.80308048  0.15239320  0.32606442     0.16400
C1812       C  0.76985918  0.17147426  0.26710182     0.28600
C1813       C  0.76475761  0.16982597  0.23071793    -0.25200
C1814       C  0.73616422  0.16048077  0.21722317    -0.24500
C1815       C  0.71194023  0.15318669  0.24098863     0.40100
C1816       C  0.71709804  0.15482403  0.27736504    -0.27000
O1817       O  0.79766679  0.18099422  0.27928469    -0.58900
H1818       H  0.78366497  0.17557078  0.21293336     0.15700
O1819       O  0.68401096  0.14369335  0.22900108    -0.60300
H1820       H  0.69881522  0.14856735  0.29516898     0.14200
H1821       H  0.81157966  0.13489092  0.39572043     0.46000
H1822       H  0.81777020  0.17300430  0.27554080     0.41400
H1823       H  0.68975993  0.13081835  0.23271077     0.44900
H1824       H  0.70225998  0.18972160  0.33356567     0.36300
C1825       C  0.71844617  0.11025190  0.76846770    -0.27900
C1826       C  0.74624786  0.11316845  0.79110817     0.01700
C1827       C  0.77900272  0.11650154  0.77635468     0.29800
C1828       C  0.78350174  0.11680508  0.73971147    -0.19700
C1829       C  0.75563302  0.11397857  0.71680399    -0.29100
C1830       C  0.72275543  0.11068071  0.73185824     0.43800
C1831       C  0.74084200  0.11273804  0.82997365     0.05000
O1832       O  0.80682796  0.11974594  0.79750912    -0.57600
H1833       H  0.80897498  0.11946277  0.72927254     0.17900
O1834       O  0.69428032  0.10827750  0.71124437    -0.64300
H1835       H  0.69311900  0.10748817  0.77919198     0.16400
C1836       C  0.71492806  0.12312733  0.84630626     0.28600
C1837       C  0.71104845  0.12285885  0.88302608    -0.25200
C1838       C  0.73293727  0.11246131  0.90417155    -0.24500
C1839       C  0.75837943  0.10180467  0.88773225     0.40100
C1840       C  0.76202143  0.10193966  0.85105710    -0.27000
O1841       O  0.69469433  0.13444223  0.82680604    -0.58900
H1842       H  0.69161340  0.13133708  0.89505742     0.15700
O1843       O  0.78001034  0.09124281  0.90722713    -0.60300
H1844       H  0.78162908  0.09358505  0.83901167     0.14200
H1845       H  0.68927257  0.09517209  0.71213601     0.46000
H1846       H  0.67166833  0.12866735  0.82632081     0.41400
H1847       H  0.76735541  0.07977362  0.91089405     0.44900
H1848       H  0.80455582  0.13250243  0.80496637     0.36300
C1849       C  0.55351089  0.11496483  0.58847860    -0.27900
C1850       C  0.53459916  0.12090593  0.55957615     0.01700
C1851       C  0.55160792  0.12499088  0.52792754     0.29800
C1852       C  0.58739413  0.12365134  0.52574591    -0.19700
C1853       C  0.60690806  0.11806839  0.55486672    -0.29100
C1854       C  0.58933520  0.11334875  0.58629816     0.43800
C1855       C  0.49705157  0.12305789  0.56236322     0.05000
O1856       O  0.53352776  0.13112200  0.49946161    -0.57600
H1857       H  0.59986565  0.12736022  0.50126703     0.17900
O1858       O  0.60679424  0.10783124  0.61557266    -0.64300
H1859       H  0.54045548  0.11167594  0.61288735     0.16400
C1860       C  0.47508248  0.11106479  0.54483822     0.28600
C1861       C  0.43990954  0.11460838  0.54342983    -0.25200
C1862       C  0.42590285  0.12989863  0.56005034    -0.24500
C1863       C  0.44777013  0.14132201  0.57950546     0.40100
C1864       C  0.48321136  0.13788829  0.58038788    -0.27000
O1865       O  0.48791383  0.09602191  0.52843842    -0.58900
H1866       H  0.42349711  0.10526412  0.52935397     0.15700
O1867       O  0.43500319  0.15605048  0.59698763    -0.60300
H1868       H  0.50005848  0.14709548  0.59426035     0.14200
H1869       H  0.60626618  0.09447424  0.61462189     0.46000
H1870       H  0.48725232  0.08642396  0.54656607     0.41400
H1871       H  0.43641290  0.16609907  0.57986807     0.44900
H1872       H  0.52823468  0.12021529  0.48537871     0.36300
C1873       C  0.05096728  0.13079556  0.58471468    -0.27900
C1874       C  0.03446229  0.12679366  0.55297883     0.01700
C1875       C  0.05423114  0.12144440  0.52371734     0.29800
C1876       C  0.09007092  0.12020989  0.52652541    -0.19700
C1877       C  0.10673364  0.12422595  0.55840682    -0.29100
C1878       C  0.08657357  0.12936894  0.58778601     0.43800
C1879       C  0.99653673  0.12802940  0.55139210     0.05000
O1880       O  0.03880570  0.11737161  0.49232210    -0.57600
H1881       H  0.10482286  0.11628805  0.50354246     0.17900
O1882       O  0.10125413  0.13314422  0.61971198    -0.64300
H1883       H  0.03610507  0.13509958  0.60737593     0.16400
C1884       C  0.97616554  0.11869269  0.57596614     0.28600
C1885       C  0.94063404  0.12111339  0.57644641    -0.25200
C1886       C  0.92446859  0.13288512  0.55272935    -0.24500
C1887       C  0.94483029  0.14172239  0.52711047     0.40100
C1888       C  0.98063658  0.13933363  0.52677934    -0.27000
O1889       O  0.99078739  0.10682823  0.59916868    -0.58900
H1890       H  0.92575059  0.11368110  0.59575357     0.15700
O1891       O  0.93036584  0.15323435  0.50322193    -0.60300
H1892       H  0.99610848  0.14668007  0.50782536     0.14200
H1893       H  0.10011139  0.12168971  0.63308983     0.46000
H1894       H  0.98948787  0.11281089  0.62247877     0.41400
H1895       H  0.92811222  0.14608304  0.48129387     0.44900
H1896       H  0.03143208  0.10461741  0.49451685     0.36300
C1897       C  0.36389770  0.27535235  0.57500984    -0.27900
C1898       C  0.38099109  0.26069361  0.55969781     0.01700
C1899       C  0.41293207  0.26346960  0.54317883     0.29800
C1900       C  0.42745001  0.28076700  0.54213690    -0.19700
C1901       C  0.41051817  0.29563346  0.55747837    -0.29100
C1902       C  0.37823356  0.29270163  0.57393403     0.43800
C1903       C  0.36454806  0.24268751  0.55983622     0.05000
O1904       O  0.42943166  0.24948374  0.52665535    -0.57600
H1905       H  0.45196991  0.28251903  0.52892823     0.17900
O1906       O  0.36005018  0.30666963  0.58854176    -0.64300
H1907       H  0.33908115  0.27335327  0.58751558     0.16400
C1908       C  0.37620127  0.22891635  0.58211459     0.28600
C1909       C  0.35987047  0.21204127  0.58203168    -0.25200
C1910       C  0.33162759  0.20856319  0.55988194    -0.24500
C1911       C  0.32030910  0.22251897  0.53729764     0.40100
C1912       C  0.33669748  0.23934870  0.53756358    -0.27000
O1913       O  0.40350107  0.23184964  0.60412580    -0.58900
H1914       H  0.36942070  0.20167410  0.59945788     0.15700
O1915       O  0.29342663  0.21993238  0.51459083    -0.60300
H1916       H  0.32765050  0.24987151  0.52018280     0.14200
H1917       H  0.34539526  0.31131341  0.56929601     0.46000
H1918       H  0.39315603  0.23614266  0.62649146     0.41400
H1919       H  0.27276948  0.22422654  0.52746599     0.44900
H1920       H  0.44588388  0.24476283  0.54421518     0.36300
C1921       C  0.21704581  0.09434535  0.27233807    -0.27900
C1922       C  0.24802758  0.10040429  0.28760731     0.01700
C1923       C  0.27449912  0.10640160  0.26489073     0.29800
C1924       C  0.26965347  0.10651010  0.22834434    -0.19700
C1925       C  0.23825247  0.10113973  0.21317867    -0.29100
C1926       C  0.21191823  0.09486744  0.23568027     0.43800
C1927       C  0.25201087  0.10123928  0.32698193     0.05000
O1928       O  0.30494019  0.11282826  0.27807121    -0.57600
H1929       H  0.29032520  0.11155336  0.21184872     0.17900
O1930       O  0.18100911  0.08927750  0.22222767    -0.64300
H1931       H  0.19652245  0.08923175  0.28889206     0.16400
C1932       C  0.22592677  0.10860616  0.34853661     0.28600
C1933       C  0.23065102  0.11011062  0.38501748    -0.25200
C1934       C  0.26136763  0.10461268  0.40122749    -0.24500
C1935       C  0.28747736  0.09717641  0.37984861     0.40100
C1936       C  0.28255293  0.09536749  0.34328720    -0.27000
O1937       O  0.19649395  0.11546060  0.33398377    -0.58900
H1938       H  0.21035129  0.11618749  0.40060054     0.15700
O1939       O  0.31790367  0.09162052  0.39431091    -0.60300
H1940       H  0.30283963  0.08936031  0.32761927     0.14200
H1941       H  0.18290186  0.07598999  0.22021426     0.46000
H1942       H  0.17783121  0.10706697  0.34109783     0.41400
H1943       H  0.31482020  0.07855647  0.39884155     0.44900
H1944       H  0.30064092  0.12571468  0.28341777     0.36300
C1945       C  0.26736938  0.16631790  0.85108509    -0.27900
C1946       C  0.24471815  0.15795321  0.82754654     0.01700
C1947       C  0.21590371  0.14857317  0.84106035     0.29800
C1948       C  0.21094004  0.14707019  0.87758530    -0.19700
C1949       C  0.23451494  0.15474763  0.90111345    -0.29100
C1950       C  0.26234212  0.16489627  0.88748957     0.43800
C1951       C  0.25200642  0.15852335  0.78905822     0.05000
O1952       O  0.19401946  0.13963029  0.81881082    -0.57600
H1953       H  0.18979355  0.13896240  0.88745967     0.17900
O1954       O  0.28552083  0.17299677  0.90958897    -0.64300
H1955       H  0.28937171  0.17375584  0.84116317     0.16400
C1956       C  0.22789913  0.16571556  0.76551078     0.28600
C1957       C  0.23341785  0.16438512  0.72920663    -0.25200
C1958       C  0.26327328  0.15624525  0.71541761    -0.24500
C1959       C  0.28867643  0.15025738  0.73903327     0.40100
C1960       C  0.28284317  0.15133621  0.77554667    -0.27000
O1961       O  0.19844139  0.17375451  0.77771670    -0.58900
H1962       H  0.21372860  0.16936758  0.71165513     0.15700
O1963       O  0.31799739  0.14208293  0.72685909    -0.60300
H1964       H  0.30187082  0.14590662  0.79334549     0.14200
H1965       H  0.27392714  0.18407960  0.91809197     0.46000
H1966       H  0.20489411  0.18649731  0.78209190     0.41400
H1967       H  0.33508609  0.15194974  0.72441317     0.44900
H1968       H  0.17232566  0.14663286  0.81927249     0.36300
C1969       C  0.62477079  0.73636188  0.38401523    -0.27900
C1970       C  0.61312072  0.75016887  0.40641326     0.01700
C1971       C  0.58452482  0.74659717  0.42834528     0.29800
C1972       C  0.56897807  0.72949130  0.42845562    -0.19700
C1973       C  0.58156913  0.71534647  0.40729361    -0.29100
C1974       C  0.60962275  0.71912519  0.38450112     0.43800
C1975       C  0.63206901  0.76779793  0.40844400     0.05000
O1976       O  0.57224358  0.75953815  0.45088027    -0.57600
H1977       H  0.54754971  0.72719884  0.44620263     0.17900
O1978       O  0.62280055  0.70610183  0.36268244    -0.64300
H1979       H  0.64625345  0.73883718  0.36642206     0.16400
C1980       C  0.66799797  0.76836702  0.41383307     0.28600
C1981       C  0.68486377  0.78489686  0.41937721    -0.25200
C1982       C  0.66668459  0.80126302  0.41947051    -0.24500
C1983       C  0.63095057  0.80076545  0.41259311     0.40100
C1984       C  0.61406661  0.78420689  0.40724730    -0.27000
O1985       O  0.68683939  0.75277789  0.41503660    -0.58900
H1986       H  0.71227916  0.78485605  0.42436414     0.15700
O1987       O  0.61174066  0.81624740  0.41343640    -0.60300
H1988       H  0.58655947  0.78418972  0.40281412     0.14200
H1989       H  0.64222129  0.70073413  0.37583927     0.46000
H1990       H  0.68412269  0.74825061  0.43941854     0.41400
H1991       H  0.60955377  0.81999250  0.38852276     0.44900
H1992       H  0.58500937  0.75773211  0.47311595     0.36300
C1993       C  0.73531095  0.89079683  0.18003353    -0.27900
C1994       C  0.75356043  0.87784191  0.19899706     0.01700
C1995       C  0.78119717  0.86874944  0.18299262     0.29800
C1996       C  0.78997460  0.87249724  0.14809065    -0.19700
C1997       C  0.77150207  0.88531769  0.12870444    -0.29100
C1998       C  0.74420709  0.89467337  0.14519761     0.43800
C1999       C  0.74713526  0.87587932  0.23692721     0.05000
O2000       O  0.79896404  0.85577048  0.20106848    -0.57600
H2001       H  0.81042902  0.86479930  0.13582759     0.17900
O2002       O  0.72581762  0.90750386  0.12746945    -0.64300
H2003       H  0.71462634  0.89820917  0.19256975     0.16400
C2004       C  0.77162120  0.88260610  0.26035650     0.28600
C2005       C  0.76622565  0.88104455  0.29629318    -0.25200
C2006       C  0.73649834  0.87264391  0.31001669    -0.24500
C2007       C  0.71125775  0.86633289  0.28639063     0.40100
C2008       C  0.71678198  0.86793545  0.24992237    -0.27000
O2009       O  0.80041215  0.89141120  0.24820263    -0.58900
H2010       H  0.78572879  0.88663954  0.31341519     0.15700
O2011       O  0.68164847  0.85833693  0.29843583    -0.60300
H2012       H  0.69755684  0.86292183  0.23181432     0.14200
H2013       H  0.73987225  0.91864626  0.12899040     0.46000
H2014       H  0.81988607  0.88315505  0.25286951     0.41400
H2015       H  0.66459212  0.86822743  0.30004264     0.44900
H2016       H  0.82248078  0.86069696  0.20427212     0.36300
C2017       C  0.73839207  0.84006497  0.75986432    -0.27900
C2018       C  0.76415647  0.84786311  0.73889255     0.01700
C2019       C  0.79532958  0.85323737  0.75471629     0.29800
C2020       C  0.79917274  0.85202320  0.79132534    -0.19700
C2021       C  0.77208953  0.84573937  0.81255240    -0.29100
C2022       C  0.74199220  0.83911782  0.79637023     0.43800
C2023       C  0.75622033  0.85240527  0.70177440     0.05000
O2024       O  0.82066394  0.86143700  0.73521048    -0.57600
H2025       H  0.82231594  0.85734692  0.80329439     0.17900
O2026       O  0.71554342  0.83212373  0.81616371    -0.64300
H2027       H  0.71455071  0.83555157  0.74805532     0.16400
C2028       C  0.77837875  0.84767932  0.67391584     0.28600
C2029       C  0.77130580  0.85358920  0.63977458    -0.25200
C2030       C  0.74164647  0.86373412  0.63255624    -0.24500
C2031       C  0.71875289  0.86783011  0.66012233     0.40100
C2032       C  0.72617581  0.86223043  0.69438627    -0.27000
O2033       O  0.80692106  0.83728747  0.67974958    -0.58900
H2034       H  0.78896273  0.85005905  0.61874357     0.15700
O2035       O  0.68969350  0.87779339  0.65413105    -0.60300
H2036       H  0.70880677  0.86600717  0.71549064     0.14200
H2037       H  0.69744255  0.84152985  0.81630607     0.46000
H2038       H  0.80055917  0.82501740  0.67166244     0.41400
H2039       H  0.69727574  0.89054918  0.65541350     0.44900
H2040       H  0.84012948  0.85281715  0.73492610     0.36300
C2041       C  0.78023383  0.98383539  0.54071868    -0.27900
C2042       C  0.75787539  0.98844847  0.56844909     0.01700
C2043       C  0.73960233  0.97461955  0.58575221     0.29800
C2044       C  0.74310524  0.95662164  0.57458195    -0.19700
C2045       C  0.76460187  0.95215755  0.54607142    -0.29100
C2046       C  0.78344881  0.96593247  0.52937764     0.43800
C2047       C  0.75299099  0.00784727  0.57746104     0.05000
O2048       O  0.71722291  0.97865050  0.61257985    -0.57600
H2049       H  0.72738514  0.94628382  0.58681027     0.17900
O2050       O  0.80306353  0.96219996  0.50021168    -0.64300
H2051       H  0.79404763  0.99429984  0.52665063     0.16400
C2052       C  0.78147149  0.01862140  0.58636110     0.28600
C2053       C  0.77807595  0.03736972  0.58840240    -0.25200
C2054       C  0.74654250  0.04582038  0.58140496    -0.24500
C2055       C  0.71738845  0.03505635  0.57496453     0.40100
C2056       C  0.72073268  0.01615787  0.57301738    -0.27000
O2057       O  0.81299691  0.01092441  0.59220882    -0.58900
H2058       H  0.80078359  0.04546589  0.59342865     0.15700
O2059       O  0.68647493  0.04290515  0.56709855    -0.60300
H2060       H  0.69858304  0.00809165  0.56583697     0.14200
H2061       H  0.82673427  0.96049388  0.50920007     0.46000
H2062       H  0.82696106  0.01370938  0.57099896     0.41400
H2063       H  0.67277634  0.04219387  0.58911189     0.44900
H2064       H  0.73016793  0.97622630  0.63447325     0.36300
C2065       C  0.01334809  0.85998645  0.45135005    -0.27900
C2066       C  0.00041724  0.87517076  0.46918331     0.01700
C2067       C  0.02332188  0.88671107  0.48672464     0.29800
C2068       C  0.05837675  0.88281109  0.48708872    -0.19700
C2069       C  0.07148054  0.86755258  0.46970347    -0.29100
C2070       C  0.04867128  0.85613715  0.45145508     0.43800
C2071       C  0.96296207  0.87868716  0.47022376     0.05000
O2072       O  0.01163650  0.90187043  0.50361399    -0.57600
H2073       H  0.07548011  0.89194840  0.50082389     0.17900
O2074       O  0.06039211  0.84103968  0.43439372    -0.64300
H2075       H  0.99591317  0.85090497  0.43793997     0.16400
C2076       C  0.94413193  0.88081817  0.43910903     0.28600
C2077       C  0.90860266  0.88364185  0.44073330    -0.25200
C2078       C  0.89094737  0.88413006  0.47322126    -0.24500
C2079       C  0.91021759  0.88242966  0.50446531     0.40100
C2080       C  0.94587557  0.87983460  0.50273343    -0.27000
O2081       O  0.96040419  0.88060602  0.40701508    -0.58900
H2082       H  0.89480325  0.88512208  0.41622229     0.15700
O2083       O  0.89458762  0.88289990  0.53683147    -0.60300
H2084       H  0.96016301  0.87824555  0.52693573     0.14200
H2085       H  0.06172595  0.83159643  0.45277314     0.46000
H2086       H  0.95528292  0.86858781  0.39683875     0.41400
H2087       H  0.89079654  0.87009592  0.54327104     0.44900
H2088       H  0.01646931  0.91195514  0.48720947     0.36300
C2089       C  0.44436421  0.87926121  0.43071094    -0.27900
C2090       C  0.46070221  0.87662496  0.46315812     0.01700
C2091       C  0.44057287  0.87542809  0.49398049     0.29800
C2092       C  0.40481776  0.87682411  0.49205518    -0.19700
C2093       C  0.38838759  0.87908165  0.45955116    -0.29100
C2094       C  0.40850035  0.88041459  0.42872299     0.43800
C2095       C  0.49869543  0.87534988  0.46484514     0.05000
O2096       O  0.45554052  0.87254825  0.52609033    -0.57600
H2097       H  0.38981948  0.87551031  0.51600780     0.17900
O2098       O  0.39342921  0.88291056  0.39655445    -0.64300
H2099       H  0.45947204  0.88057106  0.40684743     0.16400
C2100       C  0.51706704  0.86313546  0.44351240     0.28600
C2101       C  0.55289684  0.86200596  0.44626990    -0.25200
C2102       C  0.57087471  0.87286321  0.47028652    -0.24500
C2103       C  0.55247973  0.88513366  0.49146140     0.40100
C2104       C  0.51676491  0.88640772  0.48838331    -0.27000
O2105       O  0.50009569  0.85171263  0.42106387    -0.58900
H2106       H  0.56660828  0.85241269  0.42992709     0.15700
O2107       O  0.56930344  0.89654713  0.51403062    -0.60300
H2108       H  0.50310973  0.89616828  0.50437603     0.14200
H2109       H  0.38994075  0.89610671  0.39458409     0.46000
H2110       H  0.50461695  0.85650840  0.39714523     0.41400
H2111       H  0.56611423  0.89120388  0.53772074     0.44900
H2112       H  0.45907630  0.85933608  0.52748602     0.36300
C2113       C  0.13775122  0.71955863  0.48308771    -0.27900
C2114       C  0.12007171  0.73541866  0.47442278     0.01700
C2115       C  0.08466724  0.73427309  0.46678132     0.29800
C2116       C  0.06799797  0.71747833  0.46622918    -0.19700
C2117       C  0.08588484  0.70147823  0.47375266    -0.29100
C2118       C  0.12108237  0.70275029  0.48280429     0.43800
C2119       C  0.13900709  0.75291639  0.47181425     0.05000
O2120       O  0.06613845  0.74950825  0.45943261    -0.57600
H2121       H  0.04095744  0.71698852  0.45951151     0.17900
O2122       O  0.13993429  0.68761495  0.49008779    -0.64300
H2123       H  0.16499726  0.72009724  0.48886421     0.16400
C2124       C  0.15968179  0.75933944  0.49951002     0.28600
C2125       C  0.17692093  0.77591642  0.49636386    -0.25200
C2126       C  0.17379374  0.78655798  0.46589052    -0.24500
C2127       C  0.15399454  0.77978098  0.43771196     0.40100
C2128       C  0.13679858  0.76321220  0.44090587    -0.27000
O2129       O  0.16262518  0.74970626  0.53011247    -0.58900
H2130       H  0.19194268  0.78069093  0.51843498     0.15700
O2131       O  0.15117316  0.78918737  0.40683814    -0.60300
H2132       H  0.12177841  0.75830852  0.41893619     0.14200
H2133       H  0.14933336  0.68361307  0.46708492     0.46000
H2134       H  0.14627470  0.75542088  0.54679915     0.41400
H2135       H  0.17195416  0.78595197  0.39300635     0.44900
H2136       H  0.05654724  0.75347368  0.48237149     0.36300
C2137       C  0.27886239  0.85908635  0.19543919    -0.27900
C2138       C  0.24772766  0.85029080  0.20335032     0.01700
C2139       C  0.22343817  0.84759365  0.17655141     0.29800
C2140       C  0.22995744  0.85415934  0.14276113    -0.19700
C2141       C  0.26090654  0.86316934  0.13492919    -0.29100
C2142       C  0.28567662  0.86536759  0.16145758     0.43800
C2143       C  0.23980039  0.84541379  0.24020591     0.05000
O2144       O  0.19318846  0.83864436  0.18319116    -0.57600
H2145       H  0.21093421  0.85194369  0.12244862     0.17900
O2146       O  0.31624803  0.87397685  0.15468528    -0.64300
H2147       H  0.29756968  0.86156640  0.21591628     0.16400
C2148       C  0.26315123  0.83541869  0.26047878     0.28600
C2149       C  0.25781015  0.83363696  0.29671164    -0.25200
C2150       C  0.22941958  0.84180371  0.31318149    -0.24500
C2151       C  0.20481467  0.85071180  0.29247402     0.40100
C2152       C  0.21017800  0.85248897  0.25626184    -0.27000
O2153       O  0.29153254  0.82766627  0.24514933    -0.58900
H2154       H  0.27697185  0.82674074  0.31230615     0.15700
O2155       O  0.17768241  0.85955947  0.30782662    -0.60300
H2156       H  0.19225769  0.86045539  0.24107951     0.14200
H2157       H  0.31158179  0.88693922  0.15887398     0.46000
H2158       H  0.31145436  0.83493197  0.25320449     0.41400
H2159       H  0.15757962  0.85150579  0.30443873     0.44900
H2160       H  0.19869687  0.82568922  0.18015842     0.36300
C2161       C  0.28685472  0.87461907  0.67456315    -0.27900
C2162       C  0.26082199  0.87699225  0.69957209     0.01700
C2163       C  0.22736198  0.88133656  0.68826283     0.29800
C2164       C  0.22036204  0.88312492  0.65220140    -0.19700
C2165       C  0.24642051  0.88055134  0.62693822    -0.29100
C2166       C  0.27998293  0.87626652  0.63863541     0.43800
C2167       C  0.26881047  0.87439598  0.73731878     0.05000
O2168       O  0.20162139  0.88432134  0.71235787    -0.57600
H2169       H  0.19450709  0.88650605  0.64403483     0.17900
O2170       O  0.30594604  0.87261635  0.61515609    -0.64300
H2171       H  0.31256010  0.87102878  0.68291190     0.16400
C2172       C  0.25287531  0.86052476  0.75665763     0.28600
C2173       C  0.25878122  0.85899250  0.79276645    -0.25200
C2174       C  0.28140064  0.87079194  0.80995082    -0.24500
C2175       C  0.29902102  0.88399226  0.79032662     0.40100
C2176       C  0.29274629  0.88569345  0.75412661    -0.27000
O2177       O  0.23112855  0.84853929  0.74055801    -0.58900
H2178       H  0.24503367  0.84879133  0.80763791     0.15700
O2179       O  0.32111673  0.89576754  0.80654727    -0.60300
H2180       H  0.30568015  0.89622217  0.73938693     0.14200
H2181       H  0.32132476  0.88329015  0.61595291     0.46000
H2182       H  0.24621019  0.83875517  0.73170706     0.41400
H2183       H  0.30717420  0.90663846  0.81171634     0.44900
H2184       H  0.18705300  0.87333874  0.71170998     0.36300
C2185       C  0.27527428  0.97898317  0.52384991    -0.27900
C2186       C  0.24613512  0.98913532  0.51443259     0.01700
C2187       C  0.21930296  0.98058929  0.49625343     0.29800
C2188       C  0.22191508  0.96244461  0.48715523    -0.19700
C2189       C  0.25101156  0.95214323  0.49610293    -0.29100
C2190       C  0.27786003  0.96060757  0.51480300     0.43800
C2191       C  0.24348520  0.00864558  0.52308098     0.05000
O2192       O  0.19005244  0.98984577  0.48751405    -0.57600
H2193       H  0.20045907  0.95635130  0.47344327     0.17900
O2194       O  0.30674569  0.95120127  0.52408081    -0.64300
H2195       H  0.29626528  0.98538536  0.53777113     0.16400
C2196       C  0.24570314  0.01480967  0.55796005     0.28600
C2197       C  0.24204114  0.03321137  0.56538719    -0.25200
C2198       C  0.23634109  0.04587940  0.53839158    -0.24500
C2199       C  0.23319396  0.03957494  0.50356368     0.40100
C2200       C  0.23698283  0.02116331  0.49617902    -0.27000
O2201       O  0.25039647  0.00288995  0.58507031    -0.58900
H2202       H  0.24432591  0.03760821  0.59246337     0.15700
O2203       O  0.22839151  0.05133142  0.47624044    -0.60300
H2204       H  0.23523523  0.01663815  0.46914403     0.14200
H2205       H  0.32134714  0.95100048  0.50263032     0.46000
H2206       H  0.27486979  0.00421553  0.59188128     0.41400
H2207       H  0.20309460  0.05214976  0.47342499     0.44900
H2208       H  0.17475989  0.98881269  0.50836189     0.36300
loop_ 
_geom_bond_atom_site_label_1 
_geom_bond_atom_site_label_2 
_geom_bond_distance 
_geom_bond_site_symmetry_2 
_ccdc_geom_bond_type 
Zr1           O2   2.443       .  S
Zr1           O3   2.449       .  S
Zr1           O4   2.459       .  S
Zr1           O7   2.453       .  S
Zr1           O9   2.382       .  S
Zr1          O10   2.391       .  S
Zr1          O11   2.417       .  S
Zr1          O12   2.399       .  S
O2           H58   0.990       .  S
O2           H66   0.990       .  S
O3           C23   1.286       .  A
O4           C25   1.287       .  A
O5          Zr15   2.409       .  S
O5           C24   1.282       .  A
O6          Zr14   2.403       .  S
O6           C25   1.279       .  A
O7           C24   1.288       .  A
O8          Zr16   2.428       .  S
O8           C23   1.283       .  A
O9          Zr14   2.397       .  S
O9          Zr16   2.374       .  S
O10         Zr15   2.392       .  S
O10         Zr16   2.378       .  S
O10          H45   0.965       .  S
O11         Zr14   2.402       .  S
O11         Zr31   2.385       .  S
O11          H48   0.965       .  S
O12         Zr15   2.400       .  S
O12         Zr31   2.386       .  S
Zr13         O38   2.443       .  S
Zr13         O32   2.478       .  S
Zr13         O40   2.427       .  S
Zr13         O28   2.444       .  S
Zr13         O19   2.404       .  S
Zr13         O20   2.424       .  S
Zr13         O21   2.379       .  S
Zr13         O22   2.382       .  S
Zr14         O33   2.439       .  S
Zr14         O26   2.435       .  S
Zr14         O27   2.416       .  S
Zr14         O20   2.390       .  S
Zr14         O21   2.401       .  S
Zr15         O17   2.436       .  S
Zr15         O39   2.436       .  S
Zr15         O41   2.458       .  S
Zr15         O19   2.373       .  S
Zr15         O22   2.384       .  S
Zr16         O42   2.435       .  S
Zr16         O43   2.435       .  S
Zr16         O18   2.437       .  S
Zr16         O19   2.391       .  S
Zr16         O20   2.402       .  S
O17          H54   0.990       .  S
O18          H49   0.990       .  S
O18          H63   0.990       .  S
O20          H46   0.965       .  S
O21         Zr31   2.379       .  S
O22         Zr31   2.390       .  S
O22          H47   0.965       .  S
C23        C2126   1.494       .  S
C24        C2069   1.478       .  S
C25        C2150   1.472       .  S
O26          H62   0.990       .  S
O27          C29   1.281       .  A
O28          C29   1.284       .  A
C29        C2093   1.476       .  S
O30         Zr31   2.437       .  S
O30          H59   0.990       .  S
Zr31         O34   2.435       .  S
Zr31         O35   2.436       .  S
Zr31         O36   2.395       .  S
O32          C37   1.290       .  A
O33          H50   0.990       .  S
O33          H65   0.990       .  S
O34          H51   0.989       .  S
O35          H55   0.990       .  S
O35          H64   0.990       .  S
O36          C37   1.278       .  A
C37        C2189   1.491       .  S
O38          H57   0.991       .  S
O38          H61   0.990       .  S
O39          H53   0.990       .  S
O39          H60   0.990       .  S
O40          C44   1.283       .  A
O41          C44   1.289       .  A
O42          H52   0.990       .  S
O43          H56   0.990       .  S
C44        C2165   1.490       .  S
Zr67         O68   2.441       .  S
Zr67         O69   2.442       .  S
Zr67         O70   2.466       .  S
Zr67         O73   2.427       .  S
Zr67         O75   2.382       .  S
Zr67         O76   2.390       .  S
Zr67         O77   2.405       .  S
Zr67         O78   2.404       .  S
O68         H124   0.990       .  S
O68         H132   0.990       .  S
O69          C89   1.285       .  A
O70          C91   1.288       .  A
O71         Zr81   2.426       .  S
O71          C90   1.285       .  A
O72         Zr80   2.381       .  S
O72          C91   1.277       .  A
O73          C90   1.284       .  A
O74         Zr82   2.449       .  S
O74          C89   1.287       .  A
O75         Zr80   2.397       .  S
O75         Zr82   2.373       .  S
O76         Zr81   2.393       .  S
O76         Zr82   2.373       .  S
O76         H111   0.966       .  S
O77         Zr80   2.398       .  S
O77         Zr97   2.386       .  S
O77         H114   0.965       .  S
O78         Zr81   2.396       .  S
O78         Zr97   2.386       .  S
Zr79        O104   2.442       .  S
Zr79         O98   2.484       .  S
Zr79        O106   2.420       .  S
Zr79         O94   2.464       .  S
Zr79         O85   2.411       .  S
Zr79         O86   2.421       .  S
Zr79         O87   2.372       .  S
Zr79         O88   2.389       .  S
Zr80         O99   2.437       .  S
Zr80         O92   2.435       .  S
Zr80         O93   2.405       .  S
Zr80         O86   2.385       .  S
Zr80         O87   2.390       .  S
Zr81         O83   2.435       .  S
Zr81        O105   2.437       .  S
Zr81        O107   2.450       .  S
Zr81         O85   2.376       .  S
Zr81         O88   2.390       .  S
Zr82        O108   2.438       .  S
Zr82        O109   2.435       .  S
Zr82         O84   2.436       .  S
Zr82         O85   2.394       .  S
Zr82         O86   2.410       .  S
O83         H120   0.990       .  S
O84         H115   0.990       .  S
O84         H129   0.990       .  S
O86         H112   0.965       .  S
O87         Zr97   2.381       .  S
O88         Zr97   2.387       .  S
O88         H113   0.966       .  S
C89        C1982   1.497       .  S
C90        C2102   1.476       .  S
C91        C2006   1.485       .  S
O92         H128   0.990       .  S
O93          C95   1.280       .  A
O94          C95   1.288       .  A
C95        C2078   1.491       .  S
O96         Zr97   2.435       .  S
O96         H125   0.990       .  S
Zr97        O100   2.436       .  S
Zr97        O101   2.437       .  S
Zr97        O102   2.394       .  S
O98         C103   1.291       .  A
O99         H116   0.990       .  S
O99         H131   0.990       .  S
O100        H117   0.990       .  S
O101        H121   0.990       .  S
O101        H130   0.990       .  S
O102        C103   1.275       .  A
C103       C2045   1.477       .  S
O104        H123   0.990       .  S
O104        H127   0.990       .  S
O105        H119   0.990       .  S
O105        H126   0.990       .  S
O106        C110   1.282       .  A
O107        C110   1.287       .  A
O108        H118   0.990       .  S
O109        H122   0.991       .  S
C110       C2030   1.476       .  S
Zr133       O134   2.442       .  S
Zr133       O135   2.472       .  S
Zr133       O136   2.447       .  S
Zr133       O139   2.440       .  S
Zr133       O141   2.370       .  S
Zr133       O142   2.387       .  S
Zr133       O143   2.417       .  S
Zr133       O144   2.417       .  S
O134        H190   0.990       .  S
O134        H198   0.991       .  S
O135        C155   1.290       .  A
O136        C157   1.286       .  A
O137       Zr147   2.409       .  S
O137        C156   1.280       .  A
O138       Zr146   2.467       .  S
O138        C157   1.290       .  A
O139        C156   1.286       .  A
O140       Zr148   2.384       .  S
O140        C155   1.275       .  A
O141       Zr146   2.396       .  S
O141       Zr148   2.392       .  S
O142       Zr147   2.398       .  S
O142       Zr148   2.373       .  S
O142        H177   0.965       .  S
O143       Zr146   2.393       .  S
O143       Zr163   2.391       .  S
O143        H180   0.964       .  S
O144       Zr147   2.381       .  S
O144       Zr163   2.396       .  S
Zr145       O170   2.441       .  S
Zr145       O164   2.444       .  S
Zr145       O172   2.479       .  S
Zr145       O160   2.459       .  S
Zr145       O151   2.400       .  S
Zr145       O152   2.414       .  S
Zr145       O153   2.391       .  S
Zr145       O154   2.387       .  S
Zr146       O165   2.437       .  S
Zr146       O158   2.434       .  S
Zr146       O159   2.420       .  S
Zr146       O152   2.418       .  S
Zr146       O153   2.400       .  S
Zr147       O149   2.436       .  S
Zr147       O171   2.438       .  S
Zr147       O173   2.405       .  S
Zr147       O151   2.387       .  S
Zr147       O154   2.391       .  S
Zr148       O174   2.435       .  S
Zr148       O175   2.436       .  S
Zr148       O150   2.437       .  S
Zr148       O151   2.379       .  S
Zr148       O152   2.370       .  S
O149        H186   0.990       .  S
O150        H181   0.990       .  S
O150        H195   0.990       .  S
O152        H178   0.963       .  S
O153       Zr163   2.379       .  S
O154       Zr163   2.376       .  S
O154        H179   0.965       .  S
C155       C2198   1.489       .  S
C156       C1877   1.484       .  S
C157       C1934   1.498       .  S
O158        H194   0.990       .  S
O159        C161   1.284       .  A
O160        C161   1.289       .  A
C161       C1862   1.479       .  S
O162       Zr163   2.437       .  S
O162        H191   0.990       .  S
Zr163       O166   2.436       .  S
Zr163       O167   2.442       .  S
Zr163       O168   2.419       .  S
O164        C169   1.286       .  A
O165        H182   0.990       .  S
O165        H197   0.990       .  S
O166        H183   0.990       .  S
O167        H187   0.991       .  S
O167        H196   0.989       .  S
O168        C169   1.281       .  A
C169       C1910   1.495       .  S
O170        H189   0.991       .  S
O170        H193   0.990       .  S
O171        H185   0.990       .  S
O171        H192   0.990       .  S
O172        C176   1.293       .  A
O173        C176   1.281       .  A
O174        H184   0.990       .  S
O175        H188   0.990       .  S
C176       C1958   1.490       .  S
Zr199       O200   2.441       .  S
Zr199       O201   2.439       .  S
Zr199       O202   2.464       .  S
Zr199       O205   2.449       .  S
Zr199       O207   2.382       .  S
Zr199       O208   2.395       .  S
Zr199       O209   2.412       .  S
Zr199       O210   2.393       .  S
O200        H256   0.990       .  S
O200        H264   0.990       .  S
O201        C221   1.284       .  A
O202        C223   1.288       .  A
O203       Zr213   2.417       .  S
O203        C222   1.284       .  A
O204       Zr212   2.417       .  S
O204        C223   1.281       .  A
O205        C222   1.287       .  A
O206       Zr214   2.434       .  S
O206        C221   1.284       .  A
O207       Zr212   2.398       .  S
O207       Zr214   2.377       .  S
O208       Zr213   2.391       .  S
O208       Zr214   2.376       .  S
O208        H243   0.965       .  S
O209       Zr212   2.402       .  S
O209       Zr229   2.393       .  S
O209        H246   0.965       .  S
O210       Zr213   2.398       .  S
O210       Zr229   2.376       .  S
Zr211       O236   2.438       .  S
Zr211       O230   2.485       .  S
Zr211       O238   2.440       .  S
Zr211       O226   2.439       .  S
Zr211       O217   2.410       .  S
Zr211       O218   2.426       .  S
Zr211       O219   2.379       .  S
Zr211       O220   2.381       .  S
Zr212       O231   2.436       .  S
Zr212       O224   2.436       .  S
Zr212       O225   2.426       .  S
Zr212       O218   2.391       .  S
Zr212       O219   2.398       .  S
Zr213       O215   2.436       .  S
Zr213       O237   2.439       .  S
Zr213       O239   2.456       .  S
Zr213       O217   2.381       .  S
Zr213       O220   2.388       .  S
Zr214       O240   2.436       .  S
Zr214       O241   2.436       .  S
Zr214       O216   2.438       .  S
Zr214       O217   2.399       .  S
Zr214       O218   2.403       .  S
O215        H252   0.990       .  S
O216        H247   0.990       .  S
O216        H261   0.990       .  S
O218        H244   0.965       .  S
O219       Zr229   2.381       .  S
O220       Zr229   2.391       .  S
O220        H245   0.965       .  S
C221       C1790   1.492       .  S
C222       C1886   1.486       .  S
C223       C1805   1.484       .  S
O224        H260   0.990       .  S
O225        C227   1.284       .  A
O226        C227   1.284       .  A
C227       C1853   1.490       .  S
O228       Zr229   2.437       .  S
O228        H257   0.990       .  S
Zr229       O232   2.434       .  S
Zr229       O233   2.436       .  S
Zr229       O234   2.394       .  S
O230        C235   1.291       .  A
O231        H248   0.990       .  S
O231        H263   0.990       .  S
O232        H249   0.989       .  S
O233        H253   0.990       .  S
O233        H262   0.990       .  S
O234        C235   1.277       .  A
C235       C2054   1.481       .  S
O236        H255   0.990       .  S
O236        H259   0.990       .  S
O237        H251   0.990       .  S
O237        H258   0.990       .  S
O238        C242   1.284       .  A
O239        C242   1.289       .  A
O240        H250   0.990       .  S
O241        H254   0.990       .  S
C242       C1829   1.500       .  S
Zr265       O266   2.442       .  S
Zr265       O267   2.475       .  S
Zr265       O268   2.439       .  S
Zr265       O271   2.451   1_554  S
Zr265       O273   2.377       .  S
Zr265       O274   2.388   1_554  S
Zr265       O275   2.423       .  S
Zr265       O276   2.409   1_554  S
O266        H322   0.990       .  S
O266        H330   0.991       .  S
O267        C287   1.289       .  A
O268        C289   1.285       .  A
O269       Zr279   2.420       .  S
O269        C288   1.282       .  A
O270       Zr278   2.435       .  S
O270        C289   1.285       .  A
O271        C288   1.288       .  A
O272       Zr280   2.397   1_554  S
O272        C287   1.276       .  A
O273       Zr278   2.388       .  S
O273       Zr280   2.382   1_554  S
O274       Zr279   2.395       .  S
O274       Zr280   2.382       .  S
O274        H309   0.966       .  S
O275       Zr278   2.403       .  S
O275       Zr295   2.380   1_554  S
O275        H312   0.963       .  S
O276       Zr279   2.382       .  S
O276       Zr295   2.392       .  S
Zr277       O302   2.439       .  S
Zr277       O296   2.451       .  S
Zr277       O304   2.455       .  S
Zr277       O292   2.462       .  S
Zr277       O283   2.411       .  S
Zr277       O284   2.412       .  S
Zr277       O285   2.383       .  S
Zr277       O286   2.388       .  S
Zr278       O297   2.436       .  S
Zr278       O290   2.435       .  S
Zr278       O291   2.424       .  S
Zr278       O284   2.408   1_554  S
Zr278       O285   2.398   1_554  S
Zr279       O281   2.436       .  S
Zr279       O303   2.435       .  S
Zr279       O305   2.410       .  S
Zr279       O283   2.389       .  S
Zr279       O286   2.400       .  S
Zr280       O306   2.437       .  S
Zr280       O307   2.436       .  S
Zr280       O282   2.437       .  S
Zr280       O283   2.392       .  S
Zr280       O284   2.383       .  S
O281        H318   0.990       .  S
O282        H313   0.990       .  S
O282        H327   0.990   1_556  S
O284        H310   0.964       .  S
O285       Zr295   2.378       .  S
O286       Zr295   2.369       .  S
O286        H311   0.966       .  S
C287       C1766   1.478       .  S
C288       C1709   1.490       .  S
C289       C2141   1.473       .  S
O290        H326   0.989       .  S
O291        C293   1.283   1_554  A
O292        C293   1.290       .  A
C293       C1694   1.488       .  S
O294       Zr295   2.435   1_554  S
O294        H323   0.990       .  S
Zr295       O298   2.437   1_556  S
Zr295       O299   2.439       .  S
Zr295       O300   2.412       .  S
O296        C301   1.286       .  A
O297        H314   0.990       .  S
O297        H329   0.990       .  S
O298        H315   0.990       .  S
O299        H319   0.990       .  S
O299        H328   0.990       .  S
O300        C301   1.280       .  A
C301       C1733   1.482       .  S
O302        H321   0.990       .  S
O302        H325   0.990       .  S
O303        H317   0.990       .  S
O303        H324   0.990       .  S
O304        C308   1.288       .  A
O305        C308   1.280       .  A
O306        H316   0.990       .  S
O307        H320   0.990       .  S
C308       C2174   1.472       .  S
Zr331       O332   2.442       .  S
Zr331       O333   2.477       .  S
Zr331       O334   2.425       .  S
Zr331       O337   2.436   1_554  S
Zr331       O339   2.373       .  S
Zr331       O340   2.382   1_554  S
Zr331       O341   2.422       .  S
Zr331       O342   2.409   1_554  S
O332        H388   0.990       .  S
O332        H396   0.991       .  S
O333        C353   1.290   1_554  A
O334        C355   1.282       .  A
O335       Zr345   2.425       .  S
O335        C354   1.284       .  A
O336       Zr344   2.437       .  S
O336        C355   1.286       .  A
O337        C354   1.284       .  A
O338       Zr346   2.391       .  S
O338        C353   1.276       .  A
O339       Zr344   2.392       .  S
O339       Zr346   2.385   1_554  S
O340       Zr345   2.398       .  S
O340       Zr346   2.377       .  S
O340        H375   0.966       .  S
O341       Zr344   2.392       .  S
O341       Zr361   2.380   1_554  S
O341        H378   0.964       .  S
O342       Zr345   2.374       .  S
O342       Zr361   2.395       .  S
Zr343       O368   2.441       .  S
Zr343       O362   2.451       .  S
Zr343       O370   2.459       .  S
Zr343       O358   2.470       .  S
Zr343       O349   2.409       .  S
Zr343       O350   2.413       .  S
Zr343       O351   2.386       .  S
Zr343       O352   2.388       .  S
Zr344       O363   2.438       .  S
Zr344       O356   2.434       .  S
Zr344       O357   2.415       .  S
Zr344       O350   2.406   1_554  S
Zr344       O351   2.398   1_554  S
Zr345       O347   2.435       .  S
Zr345       O369   2.437       .  S
Zr345       O371   2.402       .  S
Zr345       O349   2.394       .  S
Zr345       O352   2.398       .  S
Zr346       O372   2.435       .  S
Zr346       O373   2.436       .  S
Zr346       O348   2.439       .  S
Zr346       O349   2.389       .  S
Zr346       O350   2.377       .  S
O347        H384   0.990       .  S
O348        H379   0.990       .  S
O348        H393   0.990       .  S
O350        H376   0.964       .  S
O351       Zr361   2.381       .  S
O352       Zr361   2.373       .  S
O352        H377   0.966       .  S
C353       C1670   1.499       .  S
C354       C1685   1.480       .  S
C355       C1997   1.476       .  S
O356        H392   0.990       .  S
O357        C359   1.281   1_554  A
O358        C359   1.290       .  A
C359       C1718   1.492       .  S
O360       Zr361   2.437   1_554  S
O360        H389   0.991       .  S
Zr361       O364   2.436   1_556  S
Zr361       O365   2.439       .  S
Zr361       O366   2.418       .  S
O362        C367   1.287       .  A
O363        H380   0.990       .  S
O363        H395   0.990       .  S
O364        H381   0.990       .  S
O365        H385   0.990       .  S
O365        H394   0.990       .  S
O366        C367   1.281       .  A
C367       C1637   1.488       .  S
O368        H387   0.990       .  S
O368        H391   0.990       .  S
O369        H383   0.990       .  S
O369        H390   0.990       .  S
O370        C374   1.289       .  A
O371        C374   1.280       .  A
O372        H382   0.990       .  S
O373        H386   0.990       .  S
C374       C2021   1.479       .  S
Zr397       O398   2.442       .  S
Zr397       O399   2.474       .  S
Zr397       O400   2.440       .  S
Zr397       O403   2.428       .  S
Zr397       O405   2.370       .  S
Zr397       O406   2.387       .  S
Zr397       O407   2.420       .  S
Zr397       O408   2.416       .  S
O398        H454   0.990       .  S
O398        H462   0.991       .  S
O399        C419   1.288       .  A
O400        C421   1.285       .  A
O401       Zr411   2.411       .  S
O401        C420   1.281       .  A
O402       Zr410   2.472       .  S
O402        C421   1.291       .  A
O403        C420   1.283       .  A
O404       Zr412   2.388       .  S
O404        C419   1.275       .  A
O405       Zr410   2.392       .  S
O405       Zr412   2.391       .  S
O406       Zr411   2.399       .  S
O406       Zr412   2.380       .  S
O406        H441   0.966       .  S
O407       Zr410   2.391       .  S
O407       Zr427   2.391       .  S
O407        H444   0.963       .  S
O408       Zr411   2.381       .  S
O408       Zr427   2.399       .  S
Zr409       O434   2.442   1_554  S
Zr409       O428   2.431       .  S
Zr409       O436   2.475   1_554  S
Zr409       O424   2.437       .  S
Zr409       O415   2.397   1_554  S
Zr409       O416   2.410       .  S
Zr409       O417   2.390       .  S
Zr409       O418   2.381       .  S
Zr410       O429   2.438       .  S
Zr410       O422   2.435       .  S
Zr410       O423   2.423       .  S
Zr410       O416   2.414       .  S
Zr410       O417   2.402       .  S
Zr411       O413   2.435   1_554  S
Zr411       O435   2.436   1_554  S
Zr411       O437   2.401   1_554  S
Zr411       O415   2.392   1_554  S
Zr411       O418   2.392       .  S
Zr412       O438   2.438   1_554  S
Zr412       O439   2.437   1_554  S
Zr412       O414   2.437       .  S
Zr412       O415   2.387   1_554  S
Zr412       O416   2.373       .  S
O413        H450   0.990       .  S
O414        H445   0.990       .  S
O414        H459   0.990       .  S
O416        H442   0.964       .  S
O417       Zr427   2.375       .  S
O418       Zr427   2.375       .  S
O418        H443   0.966       .  S
C419       C1757   1.481       .  S
C420       C1589   1.480       .  S
C421       C1925   1.497       .  S
O422        H458   0.990       .  S
O423        C425   1.284       .  A
O424        C425   1.286       .  A
C425       C1574   1.476       .  S
O426       Zr427   2.439       .  S
O426        H455   0.990       .  S
Zr427       O430   2.437       .  S
Zr427       O431   2.439       .  S
Zr427       O432   2.431       .  S
O428        C433   1.283       .  A
O429        H446   0.990       .  S
O429        H461   0.990       .  S
O430        H447   0.990       .  S
O431        H451   0.990       .  S
O431        H460   0.990       .  S
O432        C433   1.283       .  A
C433       C1622   1.486       .  S
O434        H453   0.990       .  S
O434        H457   0.990       .  S
O435        H449   0.990       .  S
O435        H456   0.990       .  S
O436        C440   1.290       .  A
O437        C440   1.278       .  A
O438        H448   0.990       .  S
O439        H452   0.990       .  S
C440       C1949   1.484       .  S
Zr463       O464   2.441       .  S
Zr463       O465   2.442       .  S
Zr463       O466   2.471       .  S
Zr463       O469   2.455       .  S
Zr463       O471   2.384       .  S
Zr463       O472   2.393       .  S
Zr463       O473   2.410       .  S
Zr463       O474   2.398       .  S
O464        H520   0.990       .  S
O464        H528   0.990       .  S
O465        C485   1.285       .  A
O466        C487   1.290       .  A
O467       Zr477   2.393       .  S
O467        C486   1.279       .  A
O468       Zr476   2.418       .  S
O468        C487   1.282       .  A
O469        C486   1.288       .  A
O470       Zr478   2.421       .  S
O470        C485   1.283       .  A
O471       Zr476   2.393       .  S
O471       Zr478   2.380       .  S
O472       Zr477   2.392       .  S
O472       Zr478   2.380       .  S
O472        H507   0.965       .  S
O473       Zr476   2.395       .  S
O473       Zr493   2.386       .  S
O473        H510   0.964       .  S
O474       Zr477   2.395       .  S
O474       Zr493   2.388       .  S
Zr475       O500   2.443   1_554  S
Zr475       O494   2.459       .  S
Zr475       O502   2.443   1_554  S
Zr475       O490   2.444       .  S
Zr475       O481   2.399       .  S
Zr475       O482   2.422       .  S
Zr475       O483   2.383       .  S
Zr475       O484   2.383       .  S
Zr476       O495   2.436       .  S
Zr476       O488   2.435       .  S
Zr476       O489   2.404       .  S
Zr476       O482   2.396       .  S
Zr476       O483   2.401       .  S
Zr477       O479   2.438       .  S
Zr477       O501   2.439   1_554  S
Zr477       O503   2.438   1_554  S
Zr477       O481   2.373       .  S
Zr477       O484   2.385       .  S
Zr478       O504   2.435   1_554  S
Zr478       O505   2.437   1_554  S
Zr478       O480   2.438       .  S
Zr478       O481   2.389       .  S
Zr478       O482   2.395       .  S
O479        H516   0.990   1_554  S
O480        H511   0.990       .  S
O480        H525   0.990       .  S
O482        H508   0.965       .  S
O483       Zr493   2.376       .  S
O484       Zr493   2.391       .  S
O484        H509   0.964       .  S
C485       C1550   1.493       .  S
C486       C1598   1.480       .  S
C487       C1814   1.486       .  S
O488        H524   0.990       .  S
O489        C491   1.280       .  A
O490        C491   1.284       .  A
C491       C1565   1.472       .  S
O492       Zr493   2.435       .  S
O492        H521   0.990       .  S
Zr493       O496   2.437       .  S
Zr493       O497   2.437       .  S
Zr493       O498   2.410       .  S
O494        C499   1.287       .  A
O495        H512   0.990       .  S
O495        H527   0.990       .  S
O496        H513   0.990       .  S
O497        H517   0.990       .  S
O497        H526   0.990       .  S
O498        C499   1.278       .  A
C499       C1661   1.482       .  S
O500        H519   0.990       .  S
O500        H523   0.990       .  S
O501        H515   0.990       .  S
O501        H522   0.990       .  S
O502        C506   1.286       .  A
O503        C506   1.286       .  A
O504        H514   0.990       .  S
O505        H518   0.990       .  S
C506       C1838   1.486       .  S
Zr529       O530   2.443       .  S
Zr529       O531   2.464       .  S
Zr529       O532   2.439       .  S
Zr529       O535   2.432       .  S
Zr529       O537   2.377       .  S
Zr529       O538   2.380       .  S
Zr529       O539   2.416       .  S
Zr529       O540   2.413       .  S
O530        H586   0.990       .  S
O530        H594   0.990       .  S
O531        C551   1.288       .  A
O532        C553   1.284       .  A
O533       Zr543   2.421       .  S
O533        C552   1.282       .  A
O534       Zr542   2.460       .  S
O534        C553   1.289       .  A
O535        C552   1.284       .  A
O536       Zr544   2.373       .  S
O536        C551   1.273       .  A
O537       Zr542   2.397       .  S
O537       Zr544   2.395       .  S
O538       Zr543   2.391       .  S
O538       Zr544   2.379       .  S
O538        H573   0.968       .  S
O539       Zr542   2.393       .  S
O539       Zr559   2.380       .  S
O539        H576   0.961       .  S
O540       Zr543   2.379       .  S
O540       Zr559   2.398       .  S
Zr541       O566   2.440       .  S
Zr541       O560   2.440       .  S
Zr541       O568   2.471       .  S
Zr541       O556   2.455       .  S
Zr541       O547   2.396       .  S
Zr541       O548   2.412       .  S
Zr541       O549   2.387       .  S
Zr541       O550   2.387       .  S
Zr542       O561   2.437       .  S
Zr542       O554   2.436       .  S
Zr542       O555   2.426       .  S
Zr542       O548   2.415       .  S
Zr542       O549   2.404       .  S
Zr543       O545   2.435       .  S
Zr543       O567   2.436       .  S
Zr543       O569   2.402       .  S
Zr543       O547   2.393       .  S
Zr543       O550   2.399       .  S
Zr544       O570   2.435       .  S
Zr544       O571   2.436       .  S
Zr544       O546   2.438       .  S
Zr544       O547   2.378       .  S
Zr544       O548   2.371       .  S
O545        H582   0.990       .  S
O546        H577   0.990       .  S
O546        H591   0.990       .  S
O548        H574   0.965       .  S
O549       Zr559   2.378       .  S
O550       Zr559   2.372       .  S
O550        H575   0.965       .  S
C551       C1517   1.477       .  S
C552       C1421   1.480       .  S
C553       C1469   1.488       .  S
O554        H590   0.990       .  S
O555        C557   1.284       .  A
O556        C557   1.289       .  A
C557       C1445   1.483       .  S
O558       Zr559   2.436       .  S
O558        H587   0.990       .  S
Zr559       O562   2.436       .  S
Zr559       O563   2.439       .  S
Zr559       O564   2.421       .  S
O560        C565   1.284       .  A
O561        H578   0.990       .  S
O561        H593   0.990       .  S
O562        H579   0.990       .  S
O563        H583   0.990       .  S
O563        H592   0.990       .  S
O564        C565   1.282       .  A
C565       C1901   1.494       .  S
O566        H585   0.990       .  S
O566        H589   0.990       .  S
O567        H581   0.990       .  S
O567        H588   0.990       .  S
O568        C572   1.291       .  A
O569        C572   1.279       .  A
O570        H580   0.990       .  S
O571        H584   0.990       .  S
C572       C1493   1.476       .  S
Zr595       O596   2.443       .  S
Zr595       O597   2.457       .  S
Zr595       O598   2.427   1_455  S
Zr595       O601   2.442       .  S
Zr595       O603   2.377   1_455  S
Zr595       O604   2.385       .  S
Zr595       O605   2.420   1_455  S
Zr595       O606   2.411       .  S
O596        H652   0.990       .  S
O596        H660   0.991       .  S
O597        C617   1.285   1_455  A
O598        C619   1.281       .  A
O599       Zr609   2.411       .  S
O599        C618   1.281       .  A
O600       Zr608   2.463       .  S
O600        C619   1.290       .  A
O601        C618   1.285       .  A
O602       Zr610   2.403       .  S
O602        C617   1.278       .  A
O603       Zr608   2.399       .  S
O603       Zr610   2.389       .  S
O604       Zr609   2.399       .  S
O604       Zr610   2.378   1_455  S
O604        H639   0.967       .  S
O605       Zr608   2.406       .  S
O605       Zr625   2.375       .  S
O605        H642   0.962       .  S
O606       Zr609   2.385       .  S
O606       Zr625   2.397   1_455  S
Zr607       O632   2.441       .  S
Zr607       O626   2.433       .  S
Zr607       O634   2.429       .  S
Zr607       O622   2.435       .  S
Zr607       O613   2.404       .  S
Zr607       O614   2.407       .  S
Zr607       O615   2.377       .  S
Zr607       O616   2.382       .  S
Zr608       O627   2.440       .  S
Zr608       O620   2.436       .  S
Zr608       O621   2.442       .  S
Zr608       O614   2.413       .  S
Zr608       O615   2.399       .  S
Zr609       O611   2.436       .  S
Zr609       O633   2.437       .  S
Zr609       O635   2.412   1_455  S
Zr609       O613   2.389   1_455  S
Zr609       O616   2.396   1_455  S
Zr610       O636   2.438       .  S
Zr610       O637   2.435       .  S
Zr610       O612   2.444       .  S
Zr610       O613   2.390       .  S
Zr610       O614   2.385       .  S
O611        H648   0.990       .  S
O612        H643   0.990       .  S
O612        H657   0.990       .  S
O614        H640   0.963       .  S
O615       Zr625   2.377       .  S
O616       Zr625   2.362       .  S
O616        H641   0.966       .  S
C617       C1397   1.490       .  S
C618       C1454   1.481       .  S
C619       C1358   1.470       .  S
O620        H656   0.990       .  S
O621        C623   1.288       .  A
O622        C623   1.284       .  A
C623       C1430   1.480       .  S
O624       Zr625   2.434   1_455  S
O624        H653   0.990       .  S
Zr625       O628   2.437       .  S
Zr625       O629   2.437   1_655  S
Zr625       O630   2.421       .  S
O626        C631   1.283       .  A
O627        H644   0.989       .  S
O627        H659   0.990       .  S
O628        H645   0.990       .  S
O629        H649   0.990       .  S
O629        H658   0.990       .  S
O630        C631   1.281       .  A
C631       C1781   1.487       .  S
O632        H651   0.990       .  S
O632        H655   0.991       .  S
O633        H647   0.990       .  S
O633        H654   0.990       .  S
O634        C638   1.283       .  A
O635        C638   1.281       .  A
O636        H646   0.990       .  S
O637        H650   0.990       .  S
C638       C1382   1.467       .  S
Zr661       O662   2.443       .  S
Zr661       O663   2.470       .  S
Zr661       O664   2.439       .  S
Zr661       O667   2.436       .  S
Zr661       O669   2.381   1_655  S
Zr661       O670   2.385       .  S
Zr661       O671   2.428   1_655  S
Zr661       O672   2.411       .  S
O662        H718   0.991       .  S
O662        H726   0.989       .  S
O663        C683   1.285       .  A
O664        C685   1.285   1_655  A
O665       Zr675   2.433       .  S
O665        C684   1.285       .  A
O666       Zr674   2.457       .  S
O666        C685   1.289       .  A
O667        C684   1.284       .  A
O668       Zr676   2.389       .  S
O668        C683   1.271   1_455  A
O669       Zr674   2.394       .  S
O669       Zr676   2.388       .  S
O670       Zr675   2.387       .  S
O670       Zr676   2.384   1_655  S
O670        H705   0.966       .  S
O671       Zr674   2.397       .  S
O671       Zr691   2.389       .  S
O671        H708   0.963       .  S
O672       Zr675   2.368       .  S
O672       Zr691   2.397   1_655  S
Zr673       O698   2.440       .  S
Zr673       O692   2.440       .  S
Zr673       O700   2.464       .  S
Zr673       O688   2.467       .  S
Zr673       O679   2.401       .  S
Zr673       O680   2.407       .  S
Zr673       O681   2.387       .  S
Zr673       O682   2.392       .  S
Zr674       O693   2.435       .  S
Zr674       O686   2.434       .  S
Zr674       O687   2.425       .  S
Zr674       O680   2.412       .  S
Zr674       O681   2.398       .  S
Zr675       O677   2.437       .  S
Zr675       O699   2.437       .  S
Zr675       O701   2.395       .  S
Zr675       O679   2.395   1_655  S
Zr675       O682   2.399   1_655  S
Zr676       O702   2.436       .  S
Zr676       O703   2.436       .  S
Zr676       O678   2.446       .  S
Zr676       O679   2.388       .  S
Zr676       O680   2.368       .  S
O677        H714   0.990       .  S
O678        H709   0.990       .  S
O678        H723   0.989       .  S
O680        H706   0.962       .  S
O681       Zr691   2.375       .  S
O682       Zr691   2.371       .  S
O682        H707   0.966       .  S
C683       C1406   1.481       .  S
C684       C1253   1.482       .  S
C685       C1301   1.491       .  S
O686        H722   0.990       .  S
O687        C689   1.286       .  A
O688        C689   1.290       .  A
C689       C1286   1.492       .  S
O690       Zr691   2.437   1_655  S
O690        H719   0.990       .  S
Zr691       O694   2.436       .  S
Zr691       O695   2.440   1_455  S
Zr691       O696   2.435       .  S
O692        C697   1.285       .  A
O693        H710   0.990       .  S
O693        H725   0.990       .  S
O694        H711   0.990       .  S
O695        H715   0.990       .  S
O695        H724   0.989       .  S
O696        C697   1.285       .  A
C697       C2117   1.495       .  S
O698        H717   0.990       .  S
O698        H721   0.990       .  S
O699        H713   0.990       .  S
O699        H720   0.990       .  S
O700        C704   1.290       .  A
O701        C704   1.279   1_655  A
O702        H712   0.990       .  S
O703        H716   0.990       .  S
C704       C1334   1.476       .  S
Zr727       O728   2.442       .  S
Zr727       O729   2.442       .  S
Zr727       O730   2.478       .  S
Zr727       O733   2.455       .  S
Zr727       O735   2.387       .  S
Zr727       O736   2.395       .  S
Zr727       O737   2.407       .  S
Zr727       O738   2.401       .  S
O728        H784   0.990       .  S
O728        H792   0.991       .  S
O729        C749   1.285       .  A
O730        C751   1.291       .  A
O731       Zr741   2.415       .  S
O731        C750   1.282       .  A
O732       Zr740   2.389       .  S
O732        C751   1.277       .  A
O733        C750   1.289       .  A
O734       Zr742   2.442       .  S
O734        C749   1.286       .  A
O735       Zr740   2.401       .  S
O735       Zr742   2.373       .  S
O736       Zr741   2.402       .  S
O736       Zr742   2.374       .  S
O736        H771   0.966       .  S
O737       Zr740   2.407       .  S
O737       Zr757   2.372       .  S
O737        H774   0.964       .  S
O738       Zr741   2.405       .  S
O738       Zr757   2.382       .  S
Zr739       O764   2.441       .  S
Zr739       O758   2.479       .  S
Zr739       O766   2.433       .  S
Zr739       O754   2.443       .  S
Zr739       O745   2.401       .  S
Zr739       O746   2.424       .  S
Zr739       O747   2.374       .  S
Zr739       O748   2.384       .  S
Zr740       O759   2.437       .  S
Zr740       O752   2.436       .  S
Zr740       O753   2.422       .  S
Zr740       O746   2.384       .  S
Zr740       O747   2.393       .  S
Zr741       O743   2.437       .  S
Zr741       O765   2.438       .  S
Zr741       O767   2.468       .  S
Zr741       O745   2.366       .  S
Zr741       O748   2.389       .  S
Zr742       O768   2.435       .  S
Zr742       O769   2.435       .  S
Zr742       O744   2.436       .  S
Zr742       O745   2.389       .  S
Zr742       O746   2.414       .  S
O743        H780   0.990       .  S
O744        H775   0.990       .  S
O744        H789   0.990       .  S
O746        H772   0.965       .  S
O747       Zr757   2.384       .  S
O748       Zr757   2.393       .  S
O748        H773   0.965       .  S
C749       C1973   1.504       .  S
C750       C1262   1.492       .  S
C751       C1205   1.473       .  S
O752        H788   0.990       .  S
O753        C755   1.283       .  A
O754        C755   1.284       .  A
C755       C1277   1.491       .  S
O756       Zr757   2.436       .  S
O756        H785   0.990       .  S
Zr757       O760   2.437       .  S
Zr757       O761   2.439       .  S
Zr757       O762   2.375       .  S
O758        C763   1.290       .  A
O759        H776   0.990       .  S
O759        H791   0.990       .  S
O760        H777   0.990       .  S
O761        H781   0.990       .  S
O761        H790   0.990       .  S
O762        C763   1.274       .  A
C763       C1526   1.484       .  S
O764        H783   0.991       .  S
O764        H787   0.990       .  S
O765        H779   0.990       .  S
O765        H786   0.990       .  S
O766        C770   1.284       .  A
O767        C770   1.291       .  A
O768        H778   0.990       .  S
O769        H782   0.990       .  S
C770       C1229   1.490       .  S
Zr793       O794   2.441       .  S
Zr793       O795   2.445       .  S
Zr793       O796   2.469       .  S
Zr793       O799   2.445       .  S
Zr793       O801   2.384       .  S
Zr793       O802   2.395       .  S
Zr793       O803   2.409       .  S
Zr793       O804   2.392       .  S
O794        H850   0.990       .  S
O794        H858   0.991       .  S
O795        C815   1.285       .  A
O796        C817   1.289       .  A
O797       Zr807   2.430       .  S
O797        C816   1.285   1_556  A
O798       Zr806   2.398       .  S
O798        C817   1.279   1_655  A
O799        C816   1.288       .  A
O800       Zr808   2.428       .  S
O800        C815   1.284       .  A
O801       Zr806   2.394   1_455  S
O801       Zr808   2.376       .  S
O802       Zr807   2.391   1_554  S
O802       Zr808   2.380       .  S
O802        H837   0.965       .  S
O803       Zr806   2.398   1_455  S
O803       Zr823   2.391       .  S
O803        H840   0.965       .  S
O804       Zr807   2.392   1_554  S
O804       Zr823   2.377       .  S
Zr805       O830   2.443       .  S
Zr805       O824   2.480       .  S
Zr805       O832   2.424       .  S
Zr805       O820   2.462   1_556  S
Zr805       O811   2.406   1_655  S
Zr805       O812   2.421   1_556  S
Zr805       O813   2.374   1_556  S
Zr805       O814   2.387   1_655  S
Zr806       O825   2.436       .  S
Zr806       O818   2.435       .  S
Zr806       O819   2.411       .  S
Zr806       O812   2.386       .  S
Zr806       O813   2.397       .  S
Zr807       O809   2.436       .  S
Zr807       O831   2.440       .  S
Zr807       O833   2.447       .  S
Zr807       O811   2.375       .  S
Zr807       O814   2.385       .  S
Zr808       O834   2.437   1_554  S
Zr808       O835   2.436   1_454  S
Zr808       O810   2.437   1_455  S
Zr808       O811   2.381   1_554  S
Zr808       O812   2.405   1_455  S
O809        H846   0.990       .  S
O810        H841   0.990       .  S
O810        H855   0.990       .  S
O812        H838   0.965       .  S
O813       Zr823   2.383   1_655  S
O814       Zr823   2.391   1_556  S
O814        H839   0.965       .  S
C815       C1613   1.489       .  S
C816       C1166   1.484       .  S
C817       C1349   1.480       .  S
O818        H854   0.990       .  S
O819        C821   1.281       .  A
O820        C821   1.287       .  A
C821       C1133   1.480       .  S
O822       Zr823   2.439       .  S
O822        H851   0.990       .  S
Zr823       O826   2.435       .  S
Zr823       O827   2.439       .  S
Zr823       O828   2.396       .  S
O824        C829   1.291   1_655  A
O825        H842   0.990       .  S
O825        H857   0.990       .  S
O826        H843   0.990       .  S
O827        H847   0.990       .  S
O827        H856   0.990       .  S
O828        C829   1.278   1_554  A
C829       C1181   1.480       .  S
O830        H849   0.990       .  S
O830        H853   0.991       .  S
O831        H845   0.990       .  S
O831        H852   0.990       .  S
O832        C836   1.283   1_655  A
O833        C836   1.288       .  A
O834        H844   0.990       .  S
O835        H848   0.991       .  S
C836       C1373   1.474       .  S
Zr859       O860   2.441       .  S
Zr859       O861   2.428       .  S
Zr859       O862   2.481       .  S
Zr859       O865   2.463       .  S
Zr859       O867   2.385       .  S
Zr859       O868   2.397       .  S
Zr859       O869   2.406       .  S
Zr859       O870   2.392       .  S
O860        H916   0.990       .  S
O860        H924   0.991       .  S
O861        C881   1.282       .  A
O862        C883   1.292       .  A
O863       Zr873   2.422   1_554  S
O863        C882   1.285       .  A
O864       Zr872   2.402       .  S
O864        C883   1.279       .  A
O865        C882   1.291       .  A
O866       Zr874   2.435       .  S
O866        C881   1.284       .  A
O867       Zr872   2.399       .  S
O867       Zr874   2.375       .  S
O868       Zr873   2.399   1_554  S
O868       Zr874   2.375       .  S
O868        H903   0.966       .  S
O869       Zr872   2.402       .  S
O869       Zr889   2.373       .  S
O869        H906   0.965       .  S
O870       Zr873   2.398   1_554  S
O870       Zr889   2.369       .  S
Zr871       O896   2.443   1_554  S
Zr871       O890   2.483       .  S
Zr871       O898   2.436   1_554  S
Zr871       O886   2.443       .  S
Zr871       O877   2.406   1_554  S
Zr871       O878   2.425       .  S
Zr871       O879   2.378       .  S
Zr871       O880   2.384       .  S
Zr872       O891   2.435       .  S
Zr872       O884   2.436       .  S
Zr872       O885   2.426       .  S
Zr872       O878   2.387       .  S
Zr872       O879   2.397       .  S
Zr873       O875   2.436       .  S
Zr873       O897   2.437       .  S
Zr873       O899   2.458       .  S
Zr873       O877   2.372       .  S
Zr873       O880   2.395   1_556  S
Zr874       O900   2.436   1_554  S
Zr874       O901   2.437   1_554  S
Zr874       O876   2.437       .  S
Zr874       O877   2.391   1_554  S
Zr874       O878   2.407       .  S
O875        H912   0.990       .  S
O876        H907   0.990       .  S
O876        H921   0.990       .  S
O878        H904   0.965       .  S
O879       Zr889   2.390       .  S
O880       Zr889   2.390       .  S
O880        H905   0.966   1_554  S
C881       C1541   1.488       .  S
C882       C1142   1.493       .  S
C883       C1478   1.482       .  S
O884        H920   0.990       .  S
O885        C887   1.283       .  A
O886        C887   1.284       .  A
C887       C1157   1.483       .  S
O888       Zr889   2.435       .  S
O888        H917   0.990       .  S
Zr889       O892   2.436       .  S
Zr889       O893   2.439       .  S
Zr889       O894   2.369       .  S
O890        C895   1.290       .  A
O891        H908   0.990       .  S
O891        H923   0.990       .  S
O892        H909   0.990       .  S
O893        H913   0.990       .  S
O893        H922   0.990       .  S
O894        C895   1.273       .  A
C895       C1109   1.491       .  S
O896        H915   0.991       .  S
O896        H919   0.990       .  S
O897        H911   0.990       .  S
O897        H918   0.990       .  S
O898        C902   1.285       .  A
O899        C902   1.289       .  A
O900        H910   0.990       .  S
O901        H914   0.990       .  S
C902       C1502   1.495       .  S
Zr925       O926   2.443   1_556  S
Zr925       O927   2.473       .  S
Zr925       O928   2.430   1_556  S
Zr925       O931   2.444       .  S
Zr925       O933   2.374       .  S
Zr925       O934   2.382       .  S
Zr925       O935   2.420       .  S
Zr925       O936   2.412       .  S
O926        H982   0.990       .  S
O926        H990   0.990       .  S
O927        C947   1.289       .  A
O928        C949   1.283       .  A
O929       Zr939   2.439       .  S
O929        C948   1.285       .  A
O930       Zr938   2.461   1_554  S
O930        C949   1.289       .  A
O931        C948   1.284       .  A
O932       Zr940   2.370       .  S
O932        C947   1.272       .  A
O933       Zr938   2.398       .  S
O933       Zr940   2.393       .  S
O934       Zr939   2.395       .  S
O934       Zr940   2.385       .  S
O934        H969   0.966       .  S
O935       Zr938   2.393       .  S
O935       Zr955   2.387       .  S
O935        H972   0.963   1_556  S
O936       Zr939   2.385       .  S
O936       Zr955   2.398       .  S
Zr937       O962   2.440       .  S
Zr937       O956   2.422       .  S
Zr937       O964   2.467       .  S
Zr937       O952   2.470       .  S
Zr937       O943   2.401       .  S
Zr937       O944   2.405       .  S
Zr937       O945   2.388       .  S
Zr937       O946   2.390       .  S
Zr938       O957   2.438   1_556  S
Zr938       O950   2.436   1_556  S
Zr938       O951   2.420       .  S
Zr938       O944   2.416       .  S
Zr938       O945   2.403       .  S
Zr939       O941   2.435       .  S
Zr939       O963   2.436       .  S
Zr939       O965   2.416       .  S
Zr939       O943   2.398       .  S
Zr939       O946   2.400       .  S
Zr940       O966   2.436       .  S
Zr940       O967   2.435       .  S
Zr940       O942   2.439       .  S
Zr940       O943   2.383       .  S
Zr940       O944   2.361       .  S
O941        H978   0.990       .  S
O942        H973   0.990       .  S
O942        H987   0.990       .  S
O944        H970   0.964       .  S
O945       Zr955   2.378       .  S
O946       Zr955   2.365       .  S
O946        H971   0.966       .  S
C947       C1118   1.475       .  S
C948       C1061   1.490       .  S
C949       C1214   1.483       .  S
O950        H986   0.990       .  S
O951        C953   1.284       .  A
O952        C953   1.291       .  A
C953       C1085   1.490       .  S
O954       Zr955   2.438       .  S
O954        H983   0.991       .  S
Zr955       O958   2.438       .  S
Zr955       O959   2.439       .  S
Zr955       O960   2.427       .  S
O956        C961   1.280       .  A
O957        H974   0.990       .  S
O957        H989   0.990       .  S
O958        H975   0.990       .  S
O959        H979   0.990       .  S
O959        H988   0.990       .  S
O960        C961   1.284       .  A
C961       C1742   1.491       .  S
O962        H981   0.990       .  S
O962        H985   0.990       .  S
O963        H977   0.990       .  S
O963        H984   0.990       .  S
O964        C968   1.290       .  A
O965        C968   1.282       .  A
O966        H976   0.990       .  S
O967        H980   0.990       .  S
C968       C1238   1.484       .  S
Zr991       O992   2.440   1_556  S
Zr991       O993   2.437       .  S
Zr991       O994   2.482   1_556  S
Zr991       O997   2.455       .  S
Zr991       O999   2.381       .  S
Zr991      O1000   2.393       .  S
Zr991      O1001   2.408   1_556  S
Zr991      O1002   2.403       .  S
O992       H1048   0.990       .  S
O992       H1056   0.990       .  S
O993       C1013   1.284       .  A
O994       C1015   1.292       .  A
O995      Zr1005   2.437       .  S
O995       C1014   1.287       .  A
O996      Zr1004   2.389   1_654  S
O996       C1015   1.277       .  A
O997       C1014   1.290       .  A
O998      Zr1006   2.430       .  S
O998       C1013   1.284       .  A
O999      Zr1004   2.398   1_655  S
O999      Zr1006   2.375       .  S
O1000     Zr1005   2.396       .  S
O1000     Zr1006   2.372       .  S
O1000      H1035   0.966       .  S
O1001     Zr1004   2.405   1_654  S
O1001     Zr1021   2.383   1_554  S
O1001      H1038   0.965       .  S
O1002     Zr1005   2.398       .  S
O1002     Zr1021   2.380       .  S
Zr1003     O1028   2.443       .  S
Zr1003     O1022   2.475       .  S
Zr1003     O1030   2.421       .  S
Zr1003     O1018   2.456       .  S
Zr1003     O1009   2.413   1_455  S
Zr1003     O1010   2.415       .  S
Zr1003     O1011   2.374       .  S
Zr1003     O1012   2.392   1_455  S
Zr1004     O1023   2.437   1_556  S
Zr1004     O1016   2.435   1_556  S
Zr1004     O1017   2.421       .  S
Zr1004     O1010   2.382       .  S
Zr1004     O1011   2.390       .  S
Zr1005     O1007   2.436       .  S
Zr1005     O1029   2.437       .  S
Zr1005     O1031   2.452       .  S
Zr1005     O1009   2.388       .  S
Zr1005     O1012   2.396       .  S
Zr1006     O1032   2.435       .  S
Zr1006     O1033   2.436   1_655  S
Zr1006     O1008   2.438   1_655  S
Zr1006     O1009   2.394       .  S
Zr1006     O1010   2.393   1_655  S
O1007      H1044   0.990       .  S
O1008      H1039   0.990       .  S
O1008      H1053   0.990       .  S
O1010      H1036   0.964       .  S
O1011     Zr1021   2.390   1_455  S
O1012     Zr1021   2.386       .  S
O1012      H1037   0.966       .  S
C1013      C1646   1.493       .  S
C1014      C1070   1.500       .  S
C1015      C1310   1.474       .  S
O1016      H1052   0.990       .  S
O1017      C1019   1.283       .  A
O1018      C1019   1.287       .  A
C1019      C1094   1.492       .  S
O1020     Zr1021   2.436   1_554  S
O1020      H1049   0.990       .  S
Zr1021     O1024   2.437   1_556  S
Zr1021     O1025   2.438       .  S
Zr1021     O1026   2.382       .  S
O1022      C1027   1.289       .  A
O1023      H1040   0.990       .  S
O1023      H1055   0.990       .  S
O1024      H1041   0.990       .  S
O1025      H1045   0.990       .  S
O1025      H1054   0.990       .  S
O1026      C1027   1.273   1_655  A
C1027      C1190   1.469       .  S
O1028      H1047   0.990       .  S
O1028      H1051   0.991       .  S
O1029      H1043   0.990       .  S
O1029      H1050   0.990       .  S
O1030      C1034   1.281   1_455  A
O1031      C1034   1.288       .  A
O1032      H1042   0.990       .  S
O1033      H1046   0.990       .  S
C1034      C1325   1.484       .  S
C1057      C1058   1.404       .  A
C1057      C1062   1.404       .  A
C1057      H1067   1.083       .  S
C1058      C1063   1.493       .  S
C1058      C1059   1.410       .  A
C1059      C1060   1.405       .  A
C1059      O1064   1.372       .  S
C1060      C1061   1.407       .  A
C1060      H1065   1.084       .  S
C1061      C1062   1.413       .  A
C1062      O1066   1.371       .  S
C1063      C1068   1.409       .  A
C1063      C1072   1.403       .  A
O1064      H1080   0.992       .  S
O1066      H1077   0.992       .  S
C1068      C1069   1.405       .  A
C1068      O1073   1.372       .  S
C1069      C1070   1.409       .  A
C1069      H1074   1.083       .  S
C1070      C1071   1.417       .  A
C1071      C1072   1.404       .  A
C1071      O1075   1.371       .  S
C1072      H1076   1.084       .  S
O1073      H1078   0.992   1_556  S
O1075      H1079   0.992       .  S
C1081      C1082   1.404       .  A
C1081      C1086   1.405       .  A
C1081      H1091   1.083       .  S
C1082      C1087   1.481       .  S
C1082      C1083   1.404       .  A
C1083      C1084   1.396       .  A
C1083      O1088   1.373   1_556  S
C1084      C1085   1.410       .  A
C1084      H1089   1.083       .  S
C1085      C1086   1.413       .  A
C1086      O1090   1.371       .  S
C1087      C1092   1.405       .  A
C1087      C1096   1.402       .  A
O1088      H1104   0.992       .  S
O1090      H1101   0.992       .  S
C1092      C1093   1.397       .  A
C1092      O1097   1.372   1_556  S
C1093      C1094   1.410       .  A
C1093      H1098   1.083       .  S
C1094      C1095   1.415       .  A
C1095      C1096   1.403       .  A
C1095      O1099   1.371       .  S
C1096      H1100   1.084       .  S
O1097      H1102   0.992   1_554  S
O1099      H1103   0.992       .  S
C1105      C1106   1.410       .  A
C1105      C1110   1.409       .  A
C1105      H1115   1.083       .  S
C1106      C1111   1.485       .  S
C1106      C1107   1.402   1_556  A
C1107      C1108   1.390       .  A
C1107      O1112   1.372       .  S
C1108      C1109   1.412       .  A
C1108      H1113   1.083       .  S
C1109      C1110   1.410   1_554  A
C1110      O1114   1.371       .  S
C1111      C1116   1.406       .  A
C1111      C1120   1.409   1_556  A
O1112      H1128   0.992       .  S
O1114      H1125   0.992       .  S
C1116      C1117   1.397       .  A
C1116      O1121   1.372       .  S
C1117      C1118   1.407       .  A
C1117      H1122   1.084       .  S
C1118      C1119   1.406   1_556  A
C1119      C1120   1.402       .  A
C1119      O1123   1.372       .  S
C1120      H1124   1.083       .  S
O1121      H1126   0.992       .  S
O1123      H1127   0.992       .  S
C1129      C1130   1.401       .  A
C1129      C1134   1.397       .  A
C1129      H1139   1.084       .  S
C1130      C1135   1.485       .  S
C1130      C1131   1.411       .  A
C1131      C1132   1.406       .  A
C1131      O1136   1.372       .  S
C1132      C1133   1.404       .  A
C1132      H1137   1.084       .  S
C1133      C1134   1.411       .  A
C1134      O1138   1.372       .  S
C1135      C1140   1.406   1_554  A
C1135      C1144   1.403       .  A
O1136      H1152   0.992   1_554  S
O1138      H1149   0.992       .  S
C1140      C1141   1.402       .  A
C1140      O1145   1.372       .  S
C1141      C1142   1.411   1_556  A
C1141      H1146   1.083       .  S
C1142      C1143   1.413       .  A
C1143      C1144   1.401       .  A
C1143      O1147   1.371       .  S
C1144      H1148   1.084       .  S
O1145      H1150   0.992       .  S
O1147      H1151   0.992       .  S
C1153      C1154   1.403       .  A
C1153      C1158   1.401       .  A
C1153      H1163   1.084       .  S
C1154      C1159   1.482       .  S
C1154      C1155   1.407       .  A
C1155      C1156   1.400       .  A
C1155      O1160   1.373       .  S
C1156      C1157   1.406       .  A
C1156      H1161   1.084       .  S
C1157      C1158   1.412       .  A
C1158      O1162   1.371       .  S
C1159      C1164   1.407       .  A
C1159      C1168   1.404       .  A
O1160      H1176   0.992       .  S
O1162      H1173   0.992       .  S
C1164      C1165   1.397       .  A
C1164      O1169   1.372       .  S
C1165      C1166   1.407       .  A
C1165      H1170   1.083       .  S
C1166      C1167   1.413   1_554  A
C1167      C1168   1.402   1_556  A
C1167      O1171   1.372       .  S
C1168      H1172   1.084   1_554  S
O1169      H1174   0.992       .  S
O1171      H1175   0.992       .  S
C1177      C1178   1.411   1_655  A
C1177      C1182   1.408       .  A
C1177      H1187   1.083       .  S
C1178      C1183   1.490       .  S
C1178      C1179   1.407       .  A
C1179      C1180   1.396       .  A
C1179      O1184   1.372       .  S
C1180      C1181   1.406       .  A
C1180      H1185   1.084       .  S
C1181      C1182   1.406   1_455  A
C1182      O1186   1.371       .  S
C1183      C1188   1.410   1_455  A
C1183      C1192   1.406       .  A
O1184      H1200   0.992       .  S
O1186      H1197   0.992       .  S
C1188      C1189   1.406       .  A
C1188      O1193   1.372       .  S
C1189      C1190   1.404   1_655  A
C1189      H1194   1.084       .  S
C1190      C1191   1.405       .  A
C1191      C1192   1.398       .  A
C1191      O1195   1.372       .  S
C1192      H1196   1.084       .  S
O1193      H1198   0.992       .  S
O1195      H1199   0.992       .  S
C1201      C1202   1.401       .  A
C1201      C1206   1.396       .  A
C1201      H1211   1.083       .  S
C1202      C1207   1.483       .  S
C1202      C1203   1.412       .  A
C1203      C1204   1.404       .  A
C1203      O1208   1.372       .  S
C1204      C1205   1.403       .  A
C1204      H1209   1.084       .  S
C1205      C1206   1.410       .  A
C1206      O1210   1.372       .  S
C1207      C1212   1.412       .  A
C1207      C1216   1.398       .  A
O1208      H1224   0.992       .  S
O1210      H1221   0.991       .  S
C1212      C1213   1.406       .  A
C1212      O1217   1.372       .  S
C1213      C1214   1.404       .  A
C1213      H1218   1.083       .  S
C1214      C1215   1.414       .  A
C1215      C1216   1.397       .  A
C1215      O1219   1.372       .  S
C1216      H1220   1.084       .  S
O1217      H1222   0.992       .  S
O1219      H1223   0.992       .  S
C1225      C1226   1.408       .  A
C1225      C1230   1.406       .  A
C1225      H1235   1.084       .  S
C1226      C1231   1.491       .  S
C1226      C1227   1.407       .  A
C1227      C1228   1.405       .  A
C1227      O1232   1.372       .  S
C1228      C1229   1.410       .  A
C1228      H1233   1.084       .  S
C1229      C1230   1.408       .  A
C1230      O1234   1.371       .  S
C1231      C1236   1.413       .  A
C1231      C1240   1.403       .  A
O1232      H1248   0.992       .  S
O1234      H1245   0.992       .  S
C1236      C1237   1.407       .  A
C1236      O1241   1.371       .  S
C1237      C1238   1.404       .  A
C1237      H1242   1.084       .  S
C1238      C1239   1.410       .  A
C1239      C1240   1.402       .  A
C1239      O1243   1.372       .  S
C1240      H1244   1.084       .  S
O1241      H1246   0.992       .  S
O1243      H1247   0.992       .  S
C1249      C1250   1.403       .  A
C1249      C1254   1.402       .  A
C1249      H1259   1.084       .  S
C1250      C1255   1.479       .  S
C1250      C1251   1.406       .  A
C1251      C1252   1.397       .  A
C1251      O1256   1.372       .  S
C1252      C1253   1.405       .  A
C1252      H1257   1.084       .  S
C1253      C1254   1.413       .  A
C1254      O1258   1.372       .  S
C1255      C1260   1.406       .  A
C1255      C1264   1.398       .  A
O1256      H1272   0.992       .  S
O1258      H1269   0.992       .  S
C1260      C1261   1.404       .  A
C1260      O1265   1.372       .  S
C1261      C1262   1.409       .  A
C1261      H1266   1.083       .  S
C1262      C1263   1.419       .  A
C1263      C1264   1.396       .  A
C1263      O1267   1.372       .  S
C1264      H1268   1.084       .  S
O1265      H1270   0.992       .  S
O1267      H1271   0.992       .  S
C1273      C1274   1.401       .  A
C1273      C1278   1.400       .  A
C1273      H1283   1.084       .  S
C1274      C1279   1.484       .  S
C1274      C1275   1.408       .  A
C1275      C1276   1.401       .  A
C1275      O1280   1.373       .  S
C1276      C1277   1.408       .  A
C1276      H1281   1.083       .  S
C1277      C1278   1.415       .  A
C1278      O1282   1.371       .  S
C1279      C1284   1.404       .  A
C1279      C1288   1.405       .  A
O1280      H1296   0.992       .  S
O1282      H1293   0.992       .  S
C1284      C1285   1.397       .  A
C1284      O1289   1.372       .  S
C1285      C1286   1.410       .  A
C1285      H1290   1.083       .  S
C1286      C1287   1.414       .  A
C1287      C1288   1.405       .  A
C1287      O1291   1.371       .  S
C1288      H1292   1.084       .  S
O1289      H1294   0.992       .  S
O1291      H1295   0.991       .  S
C1297      C1298   1.398       .  A
C1297      C1302   1.396       .  A
C1297      H1307   1.083       .  S
C1298      C1303   1.490       .  S
C1298      C1299   1.414   1_655  A
C1299      C1300   1.407       .  A
C1299      O1304   1.371       .  S
C1300      C1301   1.406       .  A
C1300      H1305   1.083       .  S
C1301      C1302   1.417   1_455  A
C1302      O1306   1.371       .  S
C1303      C1308   1.413       .  A
C1303      C1312   1.404       .  A
O1304      H1320   0.992       .  S
O1306      H1317   0.992       .  S
C1308      C1309   1.403       .  A
C1308      O1313   1.372       .  S
C1309      C1310   1.401       .  A
C1309      H1314   1.084       .  S
C1310      C1311   1.411       .  A
C1311      C1312   1.401       .  A
C1311      O1315   1.372   1_655  S
C1312      H1316   1.083   1_655  S
O1313      H1318   0.992       .  S
O1315      H1319   0.992   1_455  S
C1321      C1322   1.408   1_655  A
C1321      C1326   1.402       .  A
C1321      H1331   1.084       .  S
C1322      C1327   1.488       .  S
C1322      C1323   1.407       .  A
C1323      C1324   1.400       .  A
C1323      O1328   1.373       .  S
C1324      C1325   1.409   1_455  A
C1324      H1329   1.083       .  S
C1325      C1326   1.407       .  A
C1326      O1330   1.372       .  S
C1327      C1332   1.413       .  A
C1327      C1336   1.403   1_455  A
O1328      H1344   0.992       .  S
O1330      H1341   0.992       .  S
C1332      C1333   1.404       .  A
C1332      O1337   1.371       .  S
C1333      C1334   1.403       .  A
C1333      H1338   1.084       .  S
C1334      C1335   1.410   1_455  A
C1335      C1336   1.396       .  A
C1335      O1339   1.372       .  S
C1336      H1340   1.084       .  S
O1337      H1342   0.992       .  S
O1339      H1343   0.992       .  S
C1345      C1346   1.401   1_655  A
C1345      C1350   1.394       .  A
C1345      H1355   1.084       .  S
C1346      C1351   1.488       .  S
C1346      C1347   1.413       .  A
C1347      C1348   1.408       .  A
C1347      O1352   1.373       .  S
C1348      C1349   1.405       .  A
C1348      H1353   1.084       .  S
C1349      C1350   1.410   1_455  A
C1350      O1354   1.372       .  S
C1351      C1356   1.412       .  A
C1351      C1360   1.405   1_455  A
O1352      H1368   0.992       .  S
O1354      H1365   0.992       .  S
C1356      C1357   1.403   1_455  A
C1356      O1361   1.371       .  S
C1357      C1358   1.402       .  A
C1357      H1362   1.084       .  S
C1358      C1359   1.407       .  A
C1359      C1360   1.398       .  A
C1359      O1363   1.372       .  S
C1360      H1364   1.084       .  S
O1361      H1366   0.992   1_455  S
O1363      H1367   0.992       .  S
C1369      C1370   1.400       .  A
C1369      C1374   1.397       .  A
C1369      H1379   1.084       .  S
C1370      C1375   1.476       .  S
C1370      C1371   1.409   1_655  A
C1371      C1372   1.399       .  A
C1371      O1376   1.373       .  S
C1372      C1373   1.401       .  A
C1372      H1377   1.084       .  S
C1373      C1374   1.413   1_455  A
C1374      O1378   1.372       .  S
C1375      C1380   1.407   1_655  A
C1375      C1384   1.403       .  A
O1376      H1392   0.992       .  S
O1378      H1389   0.992       .  S
C1380      C1381   1.396   1_455  A
C1380      O1385   1.371       .  S
C1381      C1382   1.403       .  A
C1381      H1386   1.084   1_655  S
C1382      C1383   1.407       .  A
C1383      C1384   1.397       .  A
C1383      O1387   1.372       .  S
C1384      H1388   1.084       .  S
O1385      H1390   0.992       .  S
O1387      H1391   0.992       .  S
C1393      C1394   1.405       .  A
C1393      C1398   1.405       .  A
C1393      H1403   1.083       .  S
C1394      C1399   1.488       .  S
C1394      C1395   1.408       .  A
C1395      C1396   1.397       .  A
C1395      O1400   1.372       .  S
C1396      C1397   1.407       .  A
C1396      H1401   1.084       .  S
C1397      C1398   1.413       .  A
C1398      O1402   1.371   1_655  S
C1399      C1404   1.406   1_655  A
C1399      C1408   1.408       .  A
O1400      H1416   0.992       .  S
O1402      H1413   0.992       .  S
C1404      C1405   1.398       .  A
C1404      O1409   1.372       .  S
C1405      C1406   1.407   1_455  A
C1405      H1410   1.084       .  S
C1406      C1407   1.409       .  A
C1407      C1408   1.404       .  A
C1407      O1411   1.372       .  S
C1408      H1412   1.084       .  S
O1409      H1414   0.992       .  S
O1411      H1415   0.992       .  S
C1417      C1418   1.403       .  A
C1417      C1422   1.402       .  A
C1417      H1427   1.084       .  S
C1418      C1423   1.480       .  S
C1418      C1419   1.407       .  A
C1419      C1420   1.397       .  A
C1419      O1424   1.373       .  S
C1420      C1421   1.405       .  A
C1420      H1425   1.084       .  S
C1421      C1422   1.412       .  A
C1422      O1426   1.372       .  S
C1423      C1428   1.407       .  A
C1423      C1432   1.403       .  A
O1424      H1440   0.992       .  S
O1426      H1437   0.992       .  S
C1428      C1429   1.396       .  A
C1428      O1433   1.372       .  S
C1429      C1430   1.404       .  A
C1429      H1434   1.084       .  S
C1430      C1431   1.412       .  A
C1431      C1432   1.402       .  A
C1431      O1435   1.371       .  S
C1432      H1436   1.084       .  S
O1433      H1438   0.992       .  S
O1435      H1439   0.992       .  S
C1441      C1442   1.402       .  A
C1441      C1446   1.396       .  A
C1441      H1451   1.084       .  S
C1442      C1447   1.482       .  S
C1442      C1443   1.408       .  A
C1443      C1444   1.402       .  A
C1443      O1448   1.372       .  S
C1444      C1445   1.408       .  A
C1444      H1449   1.084       .  S
C1445      C1446   1.412       .  A
C1446      O1450   1.371       .  S
C1447      C1452   1.407       .  A
C1447      C1456   1.405       .  A
O1448      H1464   0.992       .  S
O1450      H1461   0.992       .  S
C1452      C1453   1.394       .  A
C1452      O1457   1.372       .  S
C1453      C1454   1.405       .  A
C1453      H1458   1.084       .  S
C1454      C1455   1.411       .  A
C1455      C1456   1.403       .  A
C1455      O1459   1.371       .  S
C1456      H1460   1.083       .  S
O1457      H1462   0.992       .  S
O1459      H1463   0.992       .  S
C1465      C1466   1.399       .  A
C1465      C1470   1.398       .  A
C1465      H1475   1.083       .  S
C1466      C1471   1.490       .  S
C1466      C1467   1.413       .  A
C1467      C1468   1.407       .  A
C1467      O1472   1.371       .  S
C1468      C1469   1.404       .  A
C1468      H1473   1.083       .  S
C1469      C1470   1.417       .  A
C1470      O1474   1.372       .  S
C1471      C1476   1.411       .  A
C1471      C1480   1.403       .  A
O1472      H1488   0.992       .  S
O1474      H1485   0.992       .  S
C1476      C1477   1.405       .  A
C1476      O1481   1.372       .  S
C1477      C1478   1.404       .  A
C1477      H1482   1.084       .  S
C1478      C1479   1.412       .  A
C1479      C1480   1.400       .  A
C1479      O1483   1.372       .  S
C1480      H1484   1.084       .  S
O1481      H1486   0.992       .  S
O1483      H1487   0.992       .  S
C1489      C1490   1.406       .  A
C1489      C1494   1.401       .  A
C1489      H1499   1.084       .  S
C1490      C1495   1.494       .  S
C1490      C1491   1.414       .  A
C1491      C1492   1.406       .  A
C1491      O1496   1.372       .  S
C1492      C1493   1.402       .  A
C1492      H1497   1.084       .  S
C1493      C1494   1.408       .  A
C1494      O1498   1.372       .  S
C1495      C1500   1.409       .  A
C1495      C1504   1.407       .  A
O1496      H1512   0.992       .  S
O1498      H1509   0.992       .  S
C1500      C1501   1.402       .  A
C1500      O1505   1.371       .  S
C1501      C1502   1.411       .  A
C1501      H1506   1.083       .  S
C1502      C1503   1.412       .  A
C1503      C1504   1.403       .  A
C1503      O1507   1.371       .  S
C1504      H1508   1.083       .  S
O1505      H1510   0.992       .  S
O1507      H1511   0.992       .  S
C1513      C1514   1.407       .  A
C1513      C1518   1.401       .  A
C1513      H1523   1.083       .  S
C1514      C1519   1.480       .  S
C1514      C1515   1.404       .  A
C1515      C1516   1.396       .  A
C1515      O1520   1.372       .  S
C1516      C1517   1.409       .  A
C1516      H1521   1.084       .  S
C1517      C1518   1.407       .  A
C1518      O1522   1.372       .  S
C1519      C1524   1.401       .  A
C1519      C1528   1.409       .  A
O1520      H1536   0.992       .  S
O1522      H1533   0.992       .  S
C1524      C1525   1.390       .  A
C1524      O1529   1.372       .  S
C1525      C1526   1.410       .  A
C1525      H1530   1.084       .  S
C1526      C1527   1.408       .  A
C1527      C1528   1.407       .  A
C1527      O1531   1.371       .  S
C1528      H1532   1.083       .  S
O1529      H1534   0.992       .  S
O1531      H1535   0.992       .  S
C1537      C1538   1.402       .  A
C1537      C1542   1.400       .  A
C1537      H1547   1.084       .  S
C1538      C1543   1.486       .  S
C1538      C1539   1.409       .  A
C1539      C1540   1.404       .  A
C1539      O1544   1.373       .  S
C1540      C1541   1.407       .  A
C1540      H1545   1.083       .  S
C1541      C1542   1.414       .  A
C1542      O1546   1.372       .  S
C1543      C1548   1.408       .  A
C1543      C1552   1.403       .  A
O1544      H1560   0.992   1_554  S
O1546      H1557   0.992       .  S
C1548      C1549   1.400       .  A
C1548      O1553   1.372       .  S
C1549      C1550   1.410       .  A
C1549      H1554   1.083       .  S
C1550      C1551   1.415       .  A
C1551      C1552   1.402       .  A
C1551      O1555   1.371       .  S
C1552      H1556   1.084       .  S
O1553      H1558   0.992       .  S
O1555      H1559   0.992       .  S
C1561      C1562   1.399       .  A
C1561      C1566   1.391       .  A
C1561      H1571   1.084       .  S
C1562      C1567   1.472       .  S
C1562      C1563   1.408       .  A
C1563      C1564   1.401       .  A
C1563      O1568   1.372       .  S
C1564      C1565   1.404       .  A
C1564      H1569   1.084       .  S
C1565      C1566   1.411       .  A
C1566      O1570   1.372       .  S
C1567      C1572   1.405   1_655  A
C1567      C1576   1.401   1_655  A
O1568      H1584   0.992       .  S
O1570      H1581   0.992       .  S
C1572      C1573   1.398       .  A
C1572      O1577   1.372   1_554  S
C1573      C1574   1.407       .  A
C1573      H1578   1.083       .  S
C1574      C1575   1.411       .  A
C1575      C1576   1.395       .  A
C1575      O1579   1.372       .  S
C1576      H1580   1.084       .  S
O1577      H1582   0.992   1_455  S
O1579      H1583   0.992       .  S
C1585      C1586   1.402       .  A
C1585      C1590   1.396       .  A
C1585      H1595   1.084       .  S
C1586      C1591   1.475       .  S
C1586      C1587   1.404       .  A
C1587      C1588   1.396       .  A
C1587      O1592   1.371       .  S
C1588      C1589   1.408       .  A
C1588      H1593   1.083       .  S
C1589      C1590   1.413       .  A
C1590      O1594   1.372   1_554  S
C1591      C1596   1.403       .  A
C1591      C1600   1.404       .  A
O1592      H1608   0.992       .  S
O1594      H1605   0.992       .  S
C1596      C1597   1.393       .  A
C1596      O1601   1.373       .  S
C1597      C1598   1.409       .  A
C1597      H1602   1.084       .  S
C1598      C1599   1.409       .  A
C1599      C1600   1.401       .  A
C1599      O1603   1.371       .  S
C1600      H1604   1.083       .  S
O1601      H1606   0.992       .  S
O1603      H1607   0.992       .  S
C1609      C1610   1.407       .  A
C1609      C1614   1.406       .  A
C1609      H1619   1.083       .  S
C1610      C1615   1.492       .  S
C1610      C1611   1.409       .  A
C1611      C1612   1.398       .  A
C1611      O1616   1.372   1_554  S
C1612      C1613   1.406       .  A
C1612      H1617   1.083       .  S
C1613      C1614   1.413       .  A
C1614      O1618   1.372       .  S
C1615      C1620   1.411       .  A
C1615      C1624   1.405       .  A
O1616      H1632   0.992       .  S
O1618      H1629   0.992       .  S
C1620      C1621   1.405       .  A
C1620      O1625   1.372       .  S
C1621      C1622   1.406       .  A
C1621      H1626   1.083       .  S
C1622      C1623   1.412       .  A
C1623      C1624   1.399       .  A
C1623      O1627   1.372       .  S
C1624      H1628   1.084       .  S
O1625      H1630   0.992       .  S
O1627      H1631   0.992       .  S
C1633      C1634   1.404       .  A
C1633      C1638   1.402       .  A
C1633      H1643   1.084   1_556  S
C1634      C1639   1.492       .  S
C1634      C1635   1.411       .  A
C1635      C1636   1.405       .  A
C1635      O1640   1.373       .  S
C1636      C1637   1.405       .  A
C1636      H1641   1.084       .  S
C1637      C1638   1.413       .  A
C1638      O1642   1.372   1_556  S
C1639      C1644   1.410       .  A
C1639      C1648   1.404       .  A
O1640      H1656   0.992       .  S
O1642      H1653   0.992       .  S
C1644      C1645   1.403       .  A
C1644      O1649   1.373       .  S
C1645      C1646   1.407       .  A
C1645      H1650   1.083       .  S
C1646      C1647   1.415       .  A
C1647      C1648   1.403       .  A
C1647      O1651   1.372       .  S
C1648      H1652   1.084       .  S
O1649      H1654   0.992       .  S
O1651      H1655   0.992       .  S
C1657      C1658   1.404       .  A
C1657      C1662   1.402       .  A
C1657      H1667   1.083       .  S
C1658      C1663   1.492   1_545  S
C1658      C1659   1.413   1_554  A
C1659      C1660   1.402   1_556  A
C1659      O1664   1.371       .  S
C1660      C1661   1.403       .  A
C1660      H1665   1.084   1_554  S
C1661      C1662   1.412       .  A
C1662      O1666   1.372       .  S
C1663      C1668   1.404   1_554  A
C1663      C1672   1.409       .  A
O1664      H1680   0.992       .  S
O1666      H1677   0.992       .  S
C1668      C1669   1.398       .  A
C1668      O1673   1.374       .  S
C1669      C1670   1.413       .  A
C1669      H1674   1.083       .  S
C1670      C1671   1.413   1_556  A
C1671      C1672   1.410       .  A
C1671      O1675   1.371       .  S
C1672      H1676   1.083       .  S
O1673      H1678   0.992       .  S
O1675      H1679   0.992       .  S
C1681      C1682   1.405   1_554  A
C1681      C1686   1.402       .  A
C1681      H1691   1.084       .  S
C1682      C1687   1.489       .  S
C1682      C1683   1.411       .  A
C1683      C1684   1.401       .  A
C1683      O1688   1.373       .  S
C1684      C1685   1.403       .  A
C1684      H1689   1.084       .  S
C1685      C1686   1.411   1_556  A
C1686      O1690   1.372       .  S
C1687      C1692   1.412       .  A
C1687      C1696   1.403   1_556  A
O1688      H1704   0.992       .  S
O1690      H1701   0.992       .  S
C1692      C1693   1.401       .  A
C1692      O1697   1.371       .  S
C1693      C1694   1.404       .  A
C1693      H1698   1.083       .  S
C1694      C1695   1.416   1_556  A
C1695      C1696   1.400       .  A
C1695      O1699   1.371       .  S
C1696      H1700   1.084       .  S
O1697      H1702   0.992       .  S
O1699      H1703   0.992       .  S
C1705      C1706   1.405       .  A
C1705      C1710   1.398       .  A
C1705      H1715   1.084   1_556  S
C1706      C1711   1.490       .  S
C1706      C1707   1.409       .  A
C1707      C1708   1.405       .  A
C1707      O1712   1.372       .  S
C1708      C1709   1.409       .  A
C1708      H1713   1.083       .  S
C1709      C1710   1.412       .  A
C1710      O1714   1.371   1_556  S
C1711      C1716   1.413   1_455  A
C1711      C1720   1.399   1_455  A
O1712      H1728   0.992       .  S
O1714      H1725   0.992       .  S
C1716      C1717   1.407       .  A
C1716      O1721   1.371   1_655  S
C1717      C1718   1.408       .  A
C1717      H1722   1.083       .  S
C1718      C1719   1.418       .  A
C1719      C1720   1.393       .  A
C1719      O1723   1.372   1_556  S
C1720      H1724   1.084   1_656  S
O1721      H1726   0.991       .  S
O1723      H1727   0.992       .  S
C1729      C1730   1.399       .  A
C1729      C1734   1.397       .  A
C1729      H1739   1.084       .  S
C1730      C1735   1.477       .  S
C1730      C1731   1.407       .  A
C1731      C1732   1.405       .  A
C1731      O1736   1.371       .  S
C1732      C1733   1.407       .  A
C1732      H1737   1.083       .  S
C1733      C1734   1.412       .  A
C1734      O1738   1.372       .  S
C1735      C1740   1.405       .  A
C1735      C1744   1.400       .  A
O1736      H1752   0.992       .  S
O1738      H1749   0.992       .  S
C1740      C1741   1.397       .  A
C1740      O1745   1.372       .  S
C1741      C1742   1.408       .  A
C1741      H1746   1.083       .  S
C1742      C1743   1.419       .  A
C1743      C1744   1.403       .  A
C1743      O1747   1.372       .  S
C1744      H1748   1.084       .  S
O1745      H1750   0.992       .  S
O1747      H1751   0.992       .  S
C1753      C1754   1.401       .  A
C1753      C1758   1.396       .  A
C1753      H1763   1.084       .  S
C1754      C1759   1.483   1_545  S
C1754      C1755   1.409       .  A
C1755      C1756   1.409       .  A
C1755      O1760   1.371       .  S
C1756      C1757   1.407       .  A
C1756      H1761   1.083       .  S
C1757      C1758   1.411       .  A
C1758      O1762   1.372       .  S
C1759      C1764   1.410       .  A
C1759      C1768   1.401       .  A
O1760      H1776   0.992       .  S
O1762      H1773   0.992       .  S
C1764      C1765   1.404       .  A
C1764      O1769   1.372       .  S
C1765      C1766   1.401       .  A
C1765      H1770   1.084       .  S
C1766      C1767   1.412       .  A
C1767      C1768   1.404       .  A
C1767      O1771   1.373       .  S
C1768      H1772   1.084       .  S
O1769      H1774   0.992       .  S
O1771      H1775   0.992       .  S
C1777      C1778   1.403       .  A
C1777      C1782   1.401       .  A
C1777      H1787   1.083       .  S
C1778      C1783   1.487       .  S
C1778      C1779   1.409       .  A
C1779      C1780   1.400       .  A
C1779      O1784   1.372       .  S
C1780      C1781   1.407       .  A
C1780      H1785   1.084       .  S
C1781      C1782   1.413       .  A
C1782      O1786   1.371       .  S
C1783      C1788   1.407       .  A
C1783      C1792   1.403       .  A
O1784      H1800   0.992       .  S
O1786      H1797   0.992       .  S
C1788      C1789   1.403       .  A
C1788      O1793   1.372       .  S
C1789      C1790   1.408       .  A
C1789      H1794   1.083       .  S
C1790      C1791   1.415       .  A
C1791      C1792   1.401       .  A
C1791      O1795   1.372       .  S
C1792      H1796   1.084       .  S
O1793      H1798   0.992       .  S
O1795      H1799   0.992       .  S
C1801      C1802   1.407       .  A
C1801      C1806   1.404       .  A
C1801      H1811   1.083       .  S
C1802      C1807   1.491       .  S
C1802      C1803   1.408       .  A
C1803      C1804   1.400       .  A
C1803      O1808   1.372       .  S
C1804      C1805   1.406       .  A
C1804      H1809   1.084       .  S
C1805      C1806   1.411       .  A
C1806      O1810   1.372       .  S
C1807      C1812   1.408       .  A
C1807      C1816   1.406       .  A
O1808      H1824   0.992       .  S
O1810      H1821   0.992       .  S
C1812      C1813   1.404       .  A
C1812      O1817   1.372       .  S
C1813      C1814   1.407       .  A
C1813      H1818   1.084       .  S
C1814      C1815   1.410       .  A
C1815      C1816   1.404       .  A
C1815      O1819   1.372       .  S
C1816      H1820   1.084       .  S
O1817      H1822   0.992       .  S
O1819      H1823   0.992       .  S
C1825      C1826   1.401       .  A
C1825      C1830   1.402       .  A
C1825      H1835   1.083       .  S
C1826      C1831   1.492       .  S
C1826      C1827   1.411       .  A
C1827      C1828   1.404       .  A
C1827      O1832   1.372       .  S
C1828      C1829   1.408       .  A
C1828      H1833   1.083       .  S
C1829      C1830   1.419       .  A
C1830      O1834   1.370       .  S
C1831      C1836   1.411       .  A
C1831      C1840   1.405       .  A
O1832      H1848   0.992       .  S
O1834      H1845   0.992       .  S
C1836      C1837   1.404       .  A
C1836      O1841   1.372       .  S
C1837      C1838   1.406       .  A
C1837      H1842   1.084       .  S
C1838      C1839   1.411       .  A
C1839      C1840   1.401       .  A
C1839      O1843   1.371       .  S
C1840      H1844   1.083       .  S
O1841      H1846   0.992       .  S
O1843      H1847   0.992       .  S
C1849      C1850   1.397       .  A
C1849      C1854   1.400       .  A
C1849      H1859   1.084       .  S
C1850      C1855   1.472       .  S
C1850      C1851   1.404       .  A
C1851      C1852   1.397       .  A
C1851      O1856   1.372       .  S
C1852      C1853   1.408       .  A
C1852      H1857   1.083       .  S
C1853      C1854   1.418       .  A
C1854      O1858   1.370       .  S
C1855      C1860   1.402       .  A
C1855      C1864   1.403       .  A
O1856      H1872   0.992       .  S
O1858      H1869   0.992       .  S
C1860      C1861   1.394       .  A
C1860      O1865   1.372       .  S
C1861      C1862   1.408       .  A
C1861      H1866   1.084       .  S
C1862      C1863   1.410       .  A
C1863      C1864   1.402       .  A
C1863      O1867   1.371       .  S
C1864      H1868   1.084       .  S
O1865      H1870   0.992       .  S
O1867      H1871   0.992       .  S
C1873      C1874   1.400       .  A
C1873      C1878   1.394       .  A
C1873      H1883   1.084       .  S
C1874      C1879   1.479   1_455  S
C1874      C1875   1.407       .  A
C1875      C1876   1.401       .  A
C1875      O1880   1.371       .  S
C1876      C1877   1.408       .  A
C1876      H1881   1.083       .  S
C1877      C1878   1.414       .  A
C1878      O1882   1.372       .  S
C1879      C1884   1.405       .  A
C1879      C1888   1.404       .  A
O1880      H1896   0.992       .  S
O1882      H1893   0.992       .  S
C1884      C1885   1.393       .  A
C1884      O1889   1.373       .  S
C1885      C1886   1.407       .  A
C1885      H1890   1.083       .  S
C1886      C1887   1.414       .  A
C1887      C1888   1.404       .  A
C1887      O1891   1.371       .  S
C1888      H1892   1.084       .  S
O1889      H1894   0.992       .  S
O1891      H1895   0.992       .  S
C1897      C1898   1.401       .  A
C1897      C1902   1.402       .  A
C1897      H1907   1.084       .  S
C1898      C1903   1.480       .  S
C1898      C1899   1.404       .  A
C1899      C1900   1.401       .  A
C1899      O1904   1.372       .  S
C1900      C1901   1.410       .  A
C1900      H1905   1.083       .  S
C1901      C1902   1.416       .  A
C1902      O1906   1.371       .  S
C1903      C1908   1.405       .  A
C1903      C1912   1.399       .  A
O1904      H1920   0.991       .  S
O1906      H1917   0.992       .  S
C1908      C1909   1.403       .  A
C1908      O1913   1.371       .  S
C1909      C1910   1.410       .  A
C1909      H1914   1.083       .  S
C1910      C1911   1.418       .  A
C1911      C1912   1.401       .  A
C1911      O1915   1.372       .  S
C1912      H1916   1.084       .  S
O1913      H1918   0.992       .  S
O1915      H1919   0.992       .  S
C1921      C1922   1.412       .  A
C1921      C1926   1.410       .  A
C1921      H1931   1.082       .  S
C1922      C1927   1.507       .  S
C1922      C1923   1.412       .  A
C1923      C1924   1.403       .  A
C1923      O1928   1.372       .  S
C1924      C1925   1.409       .  A
C1924      H1929   1.084       .  S
C1925      C1926   1.410       .  A
C1926      O1930   1.371       .  S
C1927      C1932   1.412       .  A
C1927      C1936   1.412       .  A
O1928      H1944   0.992       .  S
O1930      H1941   0.992       .  S
C1932      C1933   1.404       .  A
C1932      O1937   1.372       .  S
C1933      C1934   1.408       .  A
C1933      H1938   1.084       .  S
C1934      C1935   1.411       .  A
C1935      C1936   1.410       .  A
C1935      O1939   1.371       .  S
C1936      H1940   1.083       .  S
O1937      H1942   0.992       .  S
O1939      H1943   0.992       .  S
C1945      C1946   1.402       .  A
C1945      C1950   1.401       .  A
C1945      H1955   1.084       .  S
C1946      C1951   1.490       .  S
C1946      C1947   1.413       .  A
C1947      C1948   1.406       .  A
C1947      O1952   1.372       .  S
C1948      C1949   1.403       .  A
C1948      H1953   1.084       .  S
C1949      C1950   1.414       .  A
C1950      O1954   1.372       .  S
C1951      C1956   1.406       .  A
C1951      C1960   1.408       .  A
O1952      H1968   0.992       .  S
O1954      H1965   0.992       .  S
C1956      C1957   1.400       .  A
C1956      O1961   1.371       .  S
C1957      C1958   1.409       .  A
C1957      H1962   1.084       .  S
C1958      C1959   1.411       .  A
C1959      C1960   1.408       .  A
C1959      O1963   1.371       .  S
C1960      H1964   1.084       .  S
O1961      H1966   0.992       .  S
O1963      H1967   0.992       .  S
C1969      C1970   1.406       .  A
C1969      C1974   1.407       .  A
C1969      H1979   1.083       .  S
C1970      C1975   1.502       .  S
C1970      C1971   1.412       .  A
C1971      C1972   1.405       .  A
C1971      O1976   1.371       .  S
C1972      C1973   1.409       .  A
C1972      H1977   1.083       .  S
C1973      C1974   1.418       .  A
C1974      O1978   1.372       .  S
C1975      C1980   1.413       .  A
C1975      C1984   1.407       .  A
O1976      H1992   0.992       .  S
O1978      H1989   0.992       .  S
C1980      C1981   1.406       .  A
C1980      O1985   1.371       .  S
C1981      C1982   1.406       .  A
C1981      H1986   1.083       .  S
C1982      C1983   1.415       .  A
C1983      C1984   1.407       .  A
C1983      O1987   1.372       .  S
C1984      H1988   1.083       .  S
O1985      H1990   0.992       .  S
O1987      H1991   0.992       .  S
C1993      C1994   1.399       .  A
C1993      C1998   1.398       .  A
C1993      H2003   1.084       .  S
C1994      C1999   1.470       .  S
C1994      C1995   1.406       .  A
C1995      C1996   1.397       .  A
C1995      O2000   1.373       .  S
C1996      C1997   1.405       .  A
C1996      H2001   1.084       .  S
C1997      C1998   1.413       .  A
C1998      O2002   1.371       .  S
C1999      C2004   1.398       .  A
C1999      C2008   1.406       .  A
O2000      H2016   0.992       .  S
O2002      H2013   0.992       .  S
C2004      C2005   1.387       .  A
C2004      O2009   1.373       .  S
C2005      C2006   1.410       .  A
C2005      H2010   1.083       .  S
C2006      C2007   1.412       .  A
C2007      C2008   1.407       .  A
C2007      O2011   1.371       .  S
C2008      H2012   1.083       .  S
O2009      H2014   0.992       .  S
O2011      H2015   0.992       .  S
C2017      C2018   1.402       .  A
C2017      C2022   1.398       .  A
C2017      H2027   1.084       .  S
C2018      C2023   1.485       .  S
C2018      C2019   1.412       .  A
C2019      C2020   1.404       .  A
C2019      O2024   1.372       .  S
C2020      C2021   1.403       .  A
C2020      H2025   1.084       .  S
C2021      C2022   1.411       .  A
C2022      O2026   1.373       .  S
C2023      C2028   1.407       .  A
C2023      C2032   1.408       .  A
O2024      H2040   0.992       .  S
O2026      H2037   0.992       .  S
C2028      C2029   1.399       .  A
C2028      O2033   1.372       .  S
C2029      C2030   1.407       .  A
C2029      H2034   1.084       .  S
C2030      C2031   1.406       .  A
C2031      C2032   1.400       .  A
C2031      O2035   1.372       .  S
C2032      H2036   1.084       .  S
O2033      H2038   0.992       .  S
O2035      H2039   0.992       .  S
C2041      C2042   1.406       .  A
C2041      C2046   1.402       .  A
C2041      H2051   1.084       .  S
C2042      C2047   1.492   1_565  S
C2042      C2043   1.409       .  A
C2043      C2044   1.408       .  A
C2043      O2048   1.371       .  S
C2044      C2045   1.406       .  A
C2044      H2049   1.084       .  S
C2045      C2046   1.407       .  A
C2046      O2050   1.372       .  S
C2047      C2052   1.406       .  A
C2047      C2056   1.410       .  A
O2048      H2064   0.992       .  S
O2050      H2061   0.992       .  S
C2052      C2053   1.400       .  A
C2052      O2057   1.372       .  S
C2053      C2054   1.405       .  A
C2053      H2058   1.084       .  S
C2054      C2055   1.407       .  A
C2055      C2056   1.410       .  A
C2055      O2059   1.371       .  S
C2056      H2060   1.083       .  S
O2057      H2062   0.992       .  S
O2059      H2063   0.992       .  S
C2065      C2066   1.407       .  A
C2065      C2070   1.403       .  A
C2065      H2075   1.083   1_455  S
C2066      C2071   1.480   1_455  S
C2066      C2067   1.404       .  A
C2067      C2068   1.394       .  A
C2067      O2072   1.372       .  S
C2068      C2069   1.406       .  A
C2068      H2073   1.084       .  S
C2069      C2070   1.409       .  A
C2070      O2074   1.372       .  S
C2071      C2076   1.403       .  A
C2071      C2080   1.403       .  A
O2072      H2088   0.992       .  S
O2074      H2085   0.992       .  S
C2076      C2077   1.399       .  A
C2076      O2081   1.372       .  S
C2077      C2078   1.411       .  A
C2077      H2082   1.083       .  S
C2078      C2079   1.413       .  A
C2079      C2080   1.401       .  A
C2079      O2083   1.371       .  S
C2080      H2084   1.084       .  S
O2081      H2086   0.992       .  S
O2083      H2087   0.992       .  S
C2089      C2090   1.404       .  A
C2089      C2094   1.399       .  A
C2089      H2099   1.083       .  S
C2090      C2095   1.482       .  S
C2090      C2091   1.409       .  A
C2091      C2092   1.396       .  A
C2091      O2096   1.372       .  S
C2092      C2093   1.404       .  A
C2092      H2097   1.084       .  S
C2093      C2094   1.410       .  A
C2094      O2098   1.372       .  S
C2095      C2100   1.409       .  A
C2095      C2104   1.403       .  A
O2096      H2112   0.992       .  S
O2098      H2109   0.992       .  S
C2100      C2101   1.400       .  A
C2100      O2105   1.372       .  S
C2101      C2102   1.405       .  A
C2101      H2106   1.084       .  S
C2102      C2103   1.409       .  A
C2103      C2104   1.397       .  A
C2103      O2107   1.372       .  S
C2104      H2108   1.084       .  S
O2105      H2110   0.992       .  S
O2107      H2111   0.992       .  S
C2113      C2114   1.404       .  A
C2113      C2118   1.404       .  A
C2113      H2123   1.083       .  S
C2114      C2119   1.494       .  S
C2114      C2115   1.410       .  A
C2115      C2116   1.403       .  A
C2115      O2120   1.372       .  S
C2116      C2117   1.408       .  A
C2116      H2121   1.083       .  S
C2117      C2118   1.415       .  A
C2118      O2122   1.372       .  S
C2119      C2124   1.410       .  A
C2119      C2128   1.406       .  A
O2120      H2136   0.992       .  S
O2122      H2133   0.992       .  S
C2124      C2125   1.404       .  A
C2124      O2129   1.372       .  S
C2125      C2126   1.409       .  A
C2125      H2130   1.083       .  S
C2126      C2127   1.413       .  A
C2127      C2128   1.403       .  A
C2127      O2131   1.371       .  S
C2128      H2132   1.083       .  S
O2129      H2134   0.992       .  S
O2131      H2135   0.992       .  S
C2137      C2138   1.405       .  A
C2137      C2142   1.398       .  A
C2137      H2147   1.083       .  S
C2138      C2143   1.479       .  S
C2138      C2139   1.406       .  A
C2139      C2140   1.397       .  A
C2139      O2144   1.372       .  S
C2140      C2141   1.406       .  A
C2140      H2145   1.084       .  S
C2141      C2142   1.407       .  A
C2142      O2146   1.372       .  S
C2143      C2148   1.407       .  A
C2143      C2152   1.404       .  A
O2144      H2160   0.992       .  S
O2146      H2157   0.992       .  S
C2148      C2149   1.399       .  A
C2148      O2153   1.373       .  S
C2149      C2150   1.405       .  A
C2149      H2154   1.084       .  S
C2150      C2151   1.408       .  A
C2151      C2152   1.398       .  A
C2151      O2155   1.372       .  S
C2152      H2156   1.084       .  S
O2153      H2158   0.992       .  S
O2155      H2159   0.991       .  S
C2161      C2162   1.397       .  A
C2161      C2166   1.399       .  A
C2161      H2171   1.084       .  S
C2162      C2167   1.483       .  S
C2162      C2163   1.410       .  A
C2163      C2164   1.406       .  A
C2163      O2168   1.372       .  S
C2164      C2165   1.406       .  A
C2164      H2169   1.083       .  S
C2165      C2166   1.417       .  A
C2166      O2170   1.372       .  S
C2167      C2172   1.407       .  A
C2167      C2176   1.406       .  A
O2168      H2184   0.992       .  S
O2170      H2181   0.992       .  S
C2172      C2173   1.398       .  A
C2172      O2177   1.371       .  S
C2173      C2174   1.402       .  A
C2173      H2178   1.084       .  S
C2174      C2175   1.407       .  A
C2175      C2176   1.405       .  A
C2175      O2179   1.372       .  S
C2176      H2180   1.084       .  S
O2177      H2182   0.992       .  S
O2179      H2183   0.992       .  S
C2185      C2186   1.410       .  A
C2185      C2190   1.409       .  A
C2185      H2195   1.083       .  S
C2186      C2191   1.488   1_565  S
C2186      C2187   1.404       .  A
C2187      C2188   1.393       .  A
C2187      O2192   1.372       .  S
C2188      C2189   1.410       .  A
C2188      H2193   1.083       .  S
C2189      C2190   1.411       .  A
C2190      O2194   1.371       .  S
C2191      C2196   1.405       .  A
C2191      C2200   1.407       .  A
O2192      H2208   0.992       .  S
O2194      H2205   0.992       .  S
C2196      C2197   1.401       .  A
C2196      O2201   1.372       .  S
C2197      C2198   1.411       .  A
C2197      H2202   1.084       .  S
C2198      C2199   1.410       .  A
C2199      C2200   1.402       .  A
C2199      O2203   1.371       .  S
C2200      H2204   1.083       .  S
O2201      H2206   0.992       .  S
O2203      H2207   0.992       .  S
