geometry optimzed in LAMMPS
_audit_creation_date              2020-12-01 
_audit_creation_method            'lammps2cif' 
_symmetry_space_group_name_H-M    'P1' 
_symmetry_Int_Tables_number       1 
_symmetry_cell_setting            triclinic 
loop_ 
_symmetry_equiv_pos_as_xyz 
  x,y,z 
_cell_length_a                    47.66928117 
_cell_length_b                    28.182118461054703 
_cell_length_c                    58.009100307735 
_cell_angle_alpha                 90.02497793312334 
_cell_angle_beta                  90.0200545454056 
_cell_angle_gamma                 89.75295401341093 
loop_ 
_atom_site_label 
_atom_site_type_symbol 
_atom_site_fract_x 
_atom_site_fract_y 
_atom_site_fract_z 
_atom_site_charge 
O1          O  0.80920720  0.76509747  0.36414124    -0.81700
C2          C  0.86541653  0.89855567  0.41972733     0.97700
O3          O  0.87227496  0.85535885  0.41774405    -0.70800
O4          O  0.82798861  0.80447007  0.42565480    -0.74400
Al5        Al  0.85443056  0.80430277  0.40161518     1.49000
C6          C  0.80234248  0.79425478  0.42445121     0.92900
O7          O  0.78200912  0.88223854  0.38740236    -0.80600
O8          O  0.84320180  0.87736861  0.34217729    -0.74200
Al9        Al  0.79834104  0.82489049  0.37623409     1.90100
O10         O  0.81272327  0.93063346  0.37260148    -0.73200
O11         O  0.88572324  0.87537803  0.37170089    -0.73100
O12         O  0.85208707  0.91918024  0.40375598    -0.78700
O13         O  0.88437208  0.79967690  0.37981680    -0.76900
O14         O  0.83330999  0.84141654  0.38366185    -1.13100
O15         O  0.84006445  0.74522773  0.39025912    -0.72300
C16         C  0.82231460  0.73348174  0.37515717     0.98500
C17         C  0.78875442  0.92331382  0.38102355     0.94800
Al18       Al  0.84730372  0.89598473  0.37337124     1.55600
O19         O  0.78935832  0.79738255  0.40552764    -0.76900
C20         C  0.89773638  0.83540468  0.37269645     0.99000
C21         C  0.82068012  0.86304554  0.33300550     0.93900
O22         O  0.80058290  0.84855499  0.34535633    -0.82200
O23         O  0.80952851  0.20847586  0.62160913    -0.81700
C24         C  0.86773832  0.06859982  0.57112891     0.97700
O25         O  0.87391772  0.11238060  0.57121195    -0.70800
O26         O  0.82843735  0.15892253  0.56146011    -0.74400
Al27       Al  0.85475235  0.16582576  0.58509092     1.49000
C28         C  0.80303266  0.17080627  0.56240168     0.92900
O29         O  0.78510810  0.08649344  0.60296276    -0.80600
O30         O  0.84708941  0.10535799  0.64731577    -0.74200
Al31       Al  0.79978852  0.14672637  0.61180324     1.90100
O32         O  0.81667503  0.04374450  0.62071686    -0.73200
O33         O  0.88857853  0.10272009  0.61691688    -0.73100
O34         O  0.85495136  0.05068817  0.58807133    -0.78700
O35         O  0.88422465  0.17675781  0.60656455    -0.76900
O36         O  0.83493181  0.13109039  0.60472346    -1.13100
O37         O  0.83874997  0.22649160  0.59395571    -0.72300
C38         C  0.82162400  0.23926134  0.60946394     0.98500
C39         C  0.79259672  0.04754421  0.61178818     0.94800
Al40       Al  0.85057470  0.07987516  0.61728127     1.55600
O41         O  0.78987014  0.16979012  0.58136583    -0.76900
C42         C  0.89918230  0.14338521  0.61436242     0.99000
C43         C  0.82417348  0.11859936  0.65627704     0.93900
O44         O  0.80306457  0.12832896  0.64376568    -0.82200
O45         O  0.20085317  0.88358573  0.34135047    -0.81700
C46         C  0.14124219  0.94228745  0.41755361     0.97700
O47         O  0.15285504  0.96057820  0.40018043    -0.70800
O48         O  0.18876307  0.96968357  0.36631345    -0.74400
Al49       Al  0.15564688  0.93212311  0.37081503     1.49000
C50         C  0.21362930  0.96545938  0.37353780     0.92900
O51         O  0.22012569  0.84411077  0.40226133    -0.80600
O52         O  0.17132556  0.78573201  0.39394333    -0.74200
Al53       Al  0.20714984  0.86569004  0.37280162     1.90100
O54         O  0.18411467  0.85412204  0.42536625    -0.73200
O55         O  0.12386131  0.83354981  0.38342474    -0.73100
O56         O  0.13629588  0.89818522  0.41811507    -0.78700
O57         O  0.11817276  0.90746405  0.37270222    -0.76900
O58         O  0.17275957  0.88098774  0.38227031    -1.13100
O59         O  0.15714851  0.90817108  0.34042311    -0.72300
C60         C  0.17893370  0.89391946  0.33008591     0.98500
C61         C  0.20969690  0.84437908  0.42228697     0.94800
Al62       Al  0.15524141  0.84578117  0.40327856     1.55600
O63         O  0.22240410  0.92580203  0.38052833    -0.76900
C64         C  0.10836424  0.86625345  0.37549642     0.99000
C65         C  0.18702321  0.77277330  0.37750346     0.93900
O66         O  0.19694858  0.80330803  0.36395027    -0.82200
O67         O  0.19723341  0.18235813  0.64761257    -0.81700
C68         C  0.14368752  0.12119239  0.56576878     0.97700
O69         O  0.14346356  0.10009026  0.58495383    -0.70800
O70         O  0.18760978  0.07501257  0.60786517    -0.74400
Al71       Al  0.15701279  0.11575263  0.61494885     1.49000
C72         C  0.21299267  0.07852374  0.61323819     0.92900
O73         O  0.22397789  0.18329305  0.58512057    -0.80600
O74         O  0.16153823  0.26398699  0.60724890    -0.74200
Al75       Al  0.20900552  0.18201231  0.61609553     1.90100
O76         O  0.18965472  0.22613338  0.57065506    -0.73200
O77         O  0.12016187  0.20326181  0.59875366    -0.73100
O78         O  0.15051353  0.16420323  0.56425343    -0.78700
O79         O  0.12270636  0.14539242  0.62356336    -0.76900
O80         O  0.17412139  0.16929962  0.60611623    -1.13100
O81         O  0.16780620  0.12237660  0.64646435    -0.72300
C82         C  0.18169526  0.15260750  0.65782067     0.98500
C83         C  0.21393009  0.20858293  0.56897933     0.94800
Al84       Al  0.15696172  0.21055551  0.58712011     1.55600
O85         O  0.22254358  0.11840588  0.61874336    -0.76900
C86         C  0.10876590  0.17721993  0.61355840     0.99000
C87         C  0.18527503  0.27804556  0.61404715     0.93900
O88         O  0.20521187  0.24901417  0.61624546    -0.82200
O89         O  0.31104427  0.30110464  0.36728773    -0.81700
C90         C  0.37022639  0.43928275  0.41679099     0.97700
O91         O  0.37641116  0.39548744  0.41704662    -0.70800
O92         O  0.33011301  0.35160277  0.42756129    -0.74400
Al93       Al  0.35665378  0.34258383  0.40367387     1.49000
C94         C  0.30442658  0.34188162  0.42620502     0.92900
O95         O  0.28845276  0.42465675  0.38529309    -0.80600
O96         O  0.34968204  0.40067663  0.34066470    -0.74200
Al97       Al  0.30210733  0.36351951  0.37658899     1.90100
O98         O  0.32002126  0.46539296  0.36688124    -0.73200
O99         O  0.39115703  0.40289022  0.37095909    -0.73100
O100        O  0.35815519  0.45733398  0.39945563    -0.78700
O101        O  0.38606354  0.32936712  0.38211614    -0.76900
O102        O  0.33734870  0.37753076  0.38360186    -1.13100
O103        O  0.33991108  0.28262921  0.39524860    -0.72300
C104        C  0.32270414  0.27023553  0.37977400     0.98500
C105        C  0.29639041  0.46339533  0.37669335     0.94800
Al106      Al  0.35349542  0.42748005  0.37050363     1.55600
O107        O  0.29194538  0.34211859  0.40695598    -0.76900
C108        C  0.40100539  0.36148212  0.37329183     0.99000
C109        C  0.32695462  0.38639461  0.33186136     0.93900
O110        O  0.30545700  0.38035209  0.34442635    -0.82200
O111        O  0.30962218  0.74068775  0.62403915    -0.81700
C112        C  0.36681976  0.60971362  0.56865616     0.97700
O113        O  0.37463016  0.65244974  0.57062651    -0.70800
O114        O  0.32899078  0.70026437  0.56280218    -0.74400
Al115      Al  0.35540138  0.70343469  0.58654243     1.49000
C116        C  0.30318497  0.70936460  0.56391070     0.92900
O117        O  0.28572246  0.62022857  0.60248608    -0.80600
O118        O  0.34850214  0.63323654  0.64638453    -0.74200
Al119      Al  0.30044385  0.67966646  0.61272090     1.90100
O120        O  0.31803552  0.57578672  0.61814196    -0.73200
O121        O  0.38928884  0.63552091  0.61575043    -0.73100
O122        O  0.35488407  0.58875896  0.58518007    -0.78700
O123        O  0.38484150  0.71119927  0.60831917    -0.76900
O124        O  0.33563237  0.66565387  0.60499419    -1.13100
O125        O  0.33953780  0.76212688  0.59752291    -0.72300
C126        C  0.32222473  0.77289222  0.61319693     0.98500
C127        C  0.29379475  0.58028305  0.60976363     0.94800
Al128      Al  0.35147600  0.61269384  0.61548981     1.55600
O129        O  0.29020241  0.70546798  0.58288779    -0.76900
C130        C  0.39941716  0.67682285  0.61548434     0.99000
C131        C  0.32580419  0.64560746  0.65597036     0.93900
O132        O  0.30443932  0.65747932  0.64415454    -0.82200
O133        O  0.69597792  0.32143975  0.34206047    -0.81700
C134        C  0.64290658  0.39132448  0.42213469     0.97700
O135        O  0.64147461  0.40969478  0.40234969    -0.70800
O136        O  0.68770437  0.43310245  0.38139668    -0.74400
Al137      Al  0.65715304  0.39285848  0.37314963     1.49000
C138        C  0.71291694  0.42869010  0.37528483     0.92900
O139        O  0.72425591  0.32809635  0.40292662    -0.80600
O140        O  0.66185775  0.24532409  0.38402925    -0.74200
Al141      Al  0.70866156  0.32569476  0.37277288     1.90100
O142        O  0.69063745  0.28724353  0.41977780    -0.73200
O143        O  0.62070188  0.30751153  0.39054852    -0.73100
O144        O  0.65113747  0.34916535  0.42461883    -0.78700
O145        O  0.62359839  0.36157928  0.36372756    -0.76900
O146        O  0.67418374  0.33977794  0.38293486    -1.13100
O147        O  0.66978211  0.38617007  0.34187626    -0.72300
C148        C  0.68219903  0.35276509  0.33135032     0.98500
C149        C  0.71495794  0.30483800  0.41989870     0.94800
Al150      Al  0.65743038  0.30075597  0.40288711     1.55600
O151        O  0.72156518  0.38903861  0.36829737    -0.76900
C152        C  0.60947063  0.33113740  0.37457323     0.99000
C153        C  0.68535531  0.23049666  0.37699290     0.93900
O154        O  0.70535241  0.25893500  0.37450563    -0.82200
O155        O  0.69821005  0.63156702  0.64862223    -0.81700
C156        C  0.64174696  0.57137258  0.57107029     0.97700
O157        O  0.65275750  0.55321049  0.58877593    -0.70800
O158        O  0.68739806  0.54416804  0.62360319    -0.74400
Al159      Al  0.65429377  0.58189507  0.61818189     1.49000
C160        C  0.71222835  0.54773663  0.61625203     0.92900
O161        O  0.71891677  0.66830114  0.58701091    -0.80600
O162        O  0.66989595  0.72766962  0.59442381    -0.74200
Al163      Al  0.70546333  0.64814156  0.61678711     1.90100
O164        O  0.68296393  0.65777253  0.56389069    -0.73200
O165        O  0.62318665  0.68080728  0.60509372    -0.73100
O166        O  0.63541062  0.61506312  0.57083012    -0.78700
O167        O  0.61690179  0.60687596  0.61547799    -0.76900
O168        O  0.67144051  0.63278723  0.60690860    -1.13100
O169        O  0.65459498  0.60639924  0.64841294    -0.72300
C170        C  0.67571622  0.62145688  0.65923778     0.98500
C171        C  0.70851354  0.66700826  0.56691000     0.94800
Al172      Al  0.65419526  0.66752756  0.58549564     1.55600
O173        O  0.72098924  0.58755730  0.60967122    -0.76900
C174        C  0.60756380  0.64864063  0.61298142     0.99000
C175        C  0.68468853  0.74117728  0.61124371     0.93900
O176        O  0.69492135  0.71099167  0.62491962    -0.82200
O177        O  0.79252073  0.84790820  0.14822376    -0.81700
C178        C  0.85265138  0.89926867  0.07188364     0.97700
O179        O  0.84047862  0.91972977  0.08853267    -0.70800
O180        O  0.80408843  0.93191022  0.12206720    -0.74400
Al181      Al  0.83796689  0.89572234  0.11885191     1.49000
C182        C  0.77998809  0.92724773  0.11352702     0.92900
O183        O  0.77741337  0.80332038  0.08683911    -0.80600
O184        O  0.82920851  0.74567702  0.10174776    -0.74200
Al185      Al  0.78788066  0.82727483  0.11665948     1.90100
O186        O  0.81650151  0.80538168  0.06688320    -0.73200
O187        O  0.87390599  0.79919281  0.11170039    -0.73100
O188        O  0.86065458  0.85644648  0.07373549    -0.78700
O189        O  0.87622957  0.87495993  0.11849253    -0.76900
O190        O  0.82290144  0.84205979  0.10864427    -1.13100
O191        O  0.83601697  0.87475536  0.14954478    -0.72300
C192        C  0.81420042  0.85990993  0.15954204     0.98500
C193        C  0.79045568  0.79898786  0.06795593     0.94800
Al194      Al  0.84336323  0.80473343  0.09027413     1.55600
O195        O  0.77211451  0.88682371  0.10699116    -0.76900
C196        C  0.88797845  0.83483588  0.11789057     0.99000
C197        C  0.81137732  0.73408262  0.11679875     0.93900
O198        O  0.79746884  0.76556070  0.12721750    -0.82200
O199        O  0.79410892  0.13196293  0.84146832    -0.81700
C200        C  0.84969221  0.06941840  0.91921272     0.97700
O201        O  0.83820509  0.05158364  0.90164631    -0.70800
O202        O  0.80334877  0.04524081  0.86688946    -0.74400
Al203      Al  0.83720725  0.07997446  0.87195215     1.49000
C204        C  0.77855234  0.05078428  0.87402514     0.92900
O205        O  0.77457393  0.17357786  0.90236907    -0.80600
O206        O  0.82500877  0.22692995  0.89493335    -0.74200
Al207      Al  0.78750941  0.15055817  0.87299467     1.90100
O208        O  0.80983365  0.15946302  0.92586981    -0.73200
O209        O  0.87088999  0.17641794  0.88486473    -0.73100
O210        O  0.85660277  0.11269582  0.91930602    -0.78700
O211        O  0.87529258  0.10205254  0.87440970    -0.76900
O212        O  0.82122994  0.13250903  0.88296368    -1.13100
O213        O  0.83707756  0.10333700  0.84135654    -0.72300
C214        C  0.81590947  0.11901876  0.83059751     0.98500
C215        C  0.78475480  0.17194698  0.92249594     0.94800
Al216      Al  0.83919665  0.16612129  0.90429105     1.55600
O217        O  0.77048544  0.09126794  0.88057902    -0.76900
C218        C  0.88582394  0.14277924  0.87725463     0.99000
C219        C  0.81011580  0.24187281  0.87845338     0.93900
O220        O  0.79960695  0.21254332  0.86445897    -0.82200
O221        O  0.18636851  0.78144210  0.12132958    -0.81700
C222        C  0.12668566  0.92144911  0.07242706     0.97700
O223        O  0.12078770  0.87767706  0.07189242    -0.70800
O224        O  0.16798294  0.83728035  0.06152721    -0.74400
Al225      Al  0.14173366  0.82489564  0.08455565     1.49000
C226        C  0.19348259  0.82611424  0.06238135     0.92900
O227        O  0.20973585  0.90510692  0.10433552    -0.80600
O228        O  0.14792896  0.88121467  0.14819591    -0.74200
Al229      Al  0.19578039  0.84400136  0.11234893     1.90100
O230        O  0.17714562  0.94601499  0.12205508    -0.73200
O231        O  0.10617670  0.88121684  0.11829746    -0.73100
O232        O  0.13864553  0.93880150  0.08988878    -0.78700
O233        O  0.11288014  0.80894219  0.10557149    -0.76900
O234        O  0.16048205  0.85874976  0.10523998    -1.13100
O235        O  0.15936101  0.76495406  0.09186216    -0.72300
C236        C  0.17545039  0.75150222  0.10796071     0.98500
C237        C  0.20134597  0.94363318  0.11311081     0.94800
Al238      Al  0.14372111  0.90787422  0.11857329     1.55600
O239        O  0.20612977  0.82298295  0.08156549    -0.76900
C240        C  0.09722867  0.83942237  0.11498882     0.99000
C241        C  0.17126574  0.87014486  0.15696690     0.93900
O242        O  0.19244895  0.86125246  0.14445480    -0.82200
O243        O  0.18184311  0.23238392  0.86432071    -0.81700
C244        C  0.12939225  0.09633091  0.92048819     0.97700
O245        O  0.12234377  0.13971405  0.91950458    -0.70800
O246        O  0.16829669  0.18680962  0.92646938    -0.74400
Al247      Al  0.14020886  0.19192705  0.90388967     1.49000
C248        C  0.19347207  0.19878441  0.92389628     0.92900
O249        O  0.20983763  0.11371122  0.88454772    -0.80600
O250        O  0.14542967  0.12627318  0.84195512    -0.74200
Al251      Al  0.19350164  0.17230668  0.87495348     1.90100
O252        O  0.17785972  0.06786754  0.86956784    -0.73200
O253        O  0.10538484  0.12635974  0.87372241    -0.73100
O254        O  0.14087509  0.07691419  0.90320447    -0.78700
O255        O  0.10925254  0.20098453  0.88353969    -0.76900
O256        O  0.15913753  0.15613842  0.88389771    -1.13100
O257        O  0.15512257  0.25191495  0.89343775    -0.72300
C258        C  0.17094134  0.26379405  0.87689602     0.98500
C259        C  0.20234571  0.07339888  0.87749493     0.94800
Al260      Al  0.14358636  0.10358055  0.87296386     1.55600
O261        O  0.20484951  0.19840928  0.90420799    -0.76900
C262        C  0.09462312  0.16726048  0.87585508     0.99000
C263        C  0.16730768  0.14115905  0.83196095     0.93900
O264        O  0.18897589  0.15111652  0.84364771    -0.82200
O265        O  0.29754394  0.33919968  0.14763017    -0.81700
C266        C  0.35103684  0.40582564  0.06728336     0.97700
O267        O  0.35482829  0.42339561  0.08711206    -0.70800
O268        O  0.30959251  0.44770298  0.10846000    -0.74400
Al269      Al  0.33929415  0.40664196  0.11668459     1.49000
C270        C  0.28388011  0.44458357  0.11266050     0.92900
O271        O  0.27307746  0.34279983  0.08480543    -0.80600
O272        O  0.33507551  0.25995670  0.10679320    -0.74200
Al273      Al  0.28695456  0.34149760  0.11593989     1.90100
O274        O  0.30658362  0.29819503  0.07051814    -0.73200
O275        O  0.37608585  0.32256005  0.09894219    -0.73100
O276        O  0.34369272  0.36316217  0.06505961    -0.78700
O277        O  0.37236593  0.37475976  0.12645526    -0.76900
O278        O  0.32199570  0.35415196  0.10683614    -1.13100
O279        O  0.32650327  0.39987764  0.14782746    -0.72300
C280        C  0.31218338  0.36914889  0.15851188     0.98500
C281        C  0.28308277  0.31830473  0.06843808     0.94800
Al282      Al  0.33912308  0.31457407  0.08718397     1.55600
O283        O  0.27382092  0.40541010  0.11880847    -0.76900
C284        C  0.38679488  0.34489362  0.11553710     0.99000
C285        C  0.31128711  0.24564148  0.11354216     0.93900
O286        O  0.29103878  0.27434479  0.11540531    -0.82200
O287        O  0.29728223  0.66918302  0.83941623    -0.81700
C288        C  0.34701443  0.61033898  0.92317674     0.97700
O289        O  0.35102277  0.59069324  0.90379543    -0.70800
O290        O  0.30715876  0.56386052  0.88072426    -0.74400
Al291      Al  0.33743632  0.60476415  0.87321746     1.49000
C292        C  0.28171646  0.56721026  0.87529899     0.92900
O293        O  0.26839291  0.67319297  0.90066396    -0.80600
O294        O  0.33213510  0.75201274  0.88011133    -0.74200
Al295      Al  0.28479314  0.67032711  0.87039579     1.90100
O296        O  0.30171703  0.71705910  0.91549923    -0.73200
O297        O  0.37270013  0.69056277  0.89091375    -0.73100
O298        O  0.33895280  0.65289591  0.92412022    -0.78700
O299        O  0.37137894  0.63603054  0.86444374    -0.76900
O300        O  0.31927576  0.65806807  0.88132769    -1.13100
O301        O  0.32666961  0.60883467  0.84130225    -0.72300
C302        C  0.31250674  0.63842095  0.82960195     0.98500
C303        C  0.27709544  0.70128612  0.91606822     0.94800
Al304      Al  0.33514493  0.69924222  0.90082511     1.55600
O305        O  0.27202404  0.60634316  0.86849293    -0.76900
C306        C  0.38490643  0.66677790  0.87556893     0.99000
C307        C  0.30876076  0.76638242  0.87238502     0.93900
O308        O  0.28882373  0.73764557  0.86958244    -0.82200
O309        O  0.68752636  0.26564537  0.12228667    -0.81700
C310        C  0.63014447  0.40669473  0.07314865     0.97700
O311        O  0.62162373  0.36408315  0.07440400    -0.70800
O312        O  0.66440562  0.31103618  0.06442244    -0.74400
Al313      Al  0.63911406  0.30976239  0.08902994     1.49000
C314        C  0.69050797  0.30501504  0.06387462     0.92900
O315        O  0.71178971  0.38853323  0.10499099    -0.80600
O316        O  0.65041779  0.37314426  0.14944913    -0.74200
Al317      Al  0.69635089  0.32821367  0.11322614     1.90100
O318        O  0.68114161  0.43185617  0.12296637    -0.73200
O319        O  0.60870704  0.37929606  0.11966147    -0.73100
O320        O  0.64335099  0.42514261  0.08980000    -0.78700
O321        O  0.60990501  0.30399684  0.11168099    -0.76900
O322        O  0.66103155  0.34464422  0.10722780    -1.13100
O323        O  0.65331172  0.24856521  0.09866950    -0.72300
C324        C  0.67244250  0.23535230  0.11237370     0.98500
C325        C  0.70506428  0.42740660  0.11416578     0.94800
Al326      Al  0.64705455  0.39774357  0.11941703     1.55600
O327        O  0.70487711  0.30814823  0.08220202    -0.76900
C328        C  0.59659324  0.33978457  0.11904328     0.99000
C329        C  0.67278728  0.35671596  0.15821325     0.93900
O330        O  0.69334591  0.34462170  0.14548654    -0.82200
O331        O  0.68415916  0.71184876  0.86779001    -0.81700
C332        C  0.62845846  0.57279324  0.92052053     0.97700
O333        O  0.62235917  0.61651707  0.92049178    -0.70800
O334        O  0.66898977  0.66145934  0.92873810    -0.74400
Al335      Al  0.64120777  0.66884886  0.90594543     1.49000
C336        C  0.69458898  0.67128516  0.92659757     0.92900
O337        O  0.71049612  0.58961222  0.88546476    -0.80600
O338        O  0.64673483  0.60494688  0.84325065    -0.74200
Al339      Al  0.69474152  0.64962244  0.87706487     1.90100
O340        O  0.67777422  0.54505566  0.87067748    -0.73200
O341        O  0.60617882  0.60638845  0.87443633    -0.73100
O342        O  0.64052636  0.55426992  0.90338106    -0.78700
O343        O  0.61073197  0.68016696  0.88537319    -0.76900
O344        O  0.66008861  0.63377130  0.88552687    -1.13100
O345        O  0.65668160  0.72890799  0.89680321    -0.72300
C346        C  0.67285156  0.74218035  0.88083348     0.98500
C347        C  0.70210741  0.54941709  0.87896565     0.94800
Al348      Al  0.64408812  0.58206548  0.87385781     1.55600
O349        O  0.70607373  0.67184993  0.90693997    -0.76900
C350        C  0.59579865  0.64749108  0.87702804     0.99000
C351        C  0.66873781  0.61980494  0.83353351     0.93900
O352        O  0.69001632  0.63133686  0.84534195    -0.82200
C353        C  0.64002843  0.48241332  0.96752119    -0.01900
C354        C  0.61967080  0.49576696  0.98389392     0.06700
C355        C  0.60019753  0.53138933  0.97847160    -0.07800
C356        C  0.60161239  0.55543024  0.95736513     0.04200
C357        C  0.62295124  0.54381930  0.94133858    -0.15100
C358        C  0.64144715  0.50624733  0.94641657    -0.08400
C359        C  0.61997363  0.47551625  0.00740436     0.05100
C360        C  0.63927746  0.49344754  0.02330317    -0.09500
C361        C  0.64214147  0.47321067  0.04519153     0.00100
C362        C  0.62532178  0.43391072  0.05152411     0.00000
C363        C  0.60526876  0.41718632  0.03565885    -0.13100
C364        C  0.60251144  0.43765297  0.01376401     0.00400
C365        C  0.66363650  0.49225704  0.06002187     0.39700
C366        C  0.58235494  0.41827597  0.99780293     0.36300
C367        C  0.66019770  0.44533072  0.97235715     0.36100
C368        C  0.58091478  0.59169722  0.95264609     0.36800
N369        N  0.68100357  0.50801827  0.07161853    -0.44000
N370        N  0.56621086  0.40276806  0.98497813    -0.44400
N371        N  0.56427595  0.62067673  0.94883860    -0.41800
N372        N  0.67631483  0.41559121  0.97628818    -0.43200
H373        H  0.65798019  0.49696590  0.93437566     0.13000
H374        H  0.58436232  0.54127777  0.99102719     0.09400
H375        H  0.65272444  0.52266243  0.01830204     0.10500
H376        H  0.59214897  0.38722499  0.04010904     0.16300
C377        C  0.45755434  0.65411359  0.84874488    -0.01900
C378        C  0.47507401  0.67225525  0.86628126     0.06700
C379        C  0.46260246  0.69416877  0.88540998    -0.07800
C380        C  0.43338882  0.69532724  0.88814077     0.04200
C381        C  0.41571479  0.67326825  0.87158616    -0.15100
C382        C  0.42825797  0.65405036  0.85166113    -0.08400
C383        C  0.50627849  0.66605527  0.86612891     0.05100
C384        C  0.52365911  0.70603798  0.86796265    -0.09500
C385        C  0.55286144  0.70135357  0.87076793     0.00100
C386        C  0.56539502  0.65564747  0.87170016     0.00000
C387        C  0.54790467  0.61580691  0.86920472    -0.13100
C388        C  0.51876847  0.62055308  0.86677317     0.00400
C389        C  0.56919279  0.74414801  0.87294039     0.39700
C390        C  0.50198895  0.57799866  0.86661261     0.36300
C391        C  0.46917920  0.63571551  0.82756151     0.36100
C392        C  0.42257182  0.71777482  0.90871231     0.36800
N393        N  0.58223566  0.77849758  0.87474671    -0.44000
N394        N  0.48852763  0.54392324  0.86651167    -0.44400
N395        N  0.41399888  0.73598384  0.92516914    -0.41800
N396        N  0.47850441  0.62118037  0.81053598    -0.43200
H397        H  0.41519500  0.63832287  0.83842013     0.13000
H398        H  0.47586581  0.70897036  0.89878652     0.09400
H399        H  0.51424141  0.74115973  0.86772793     0.10500
H400        H  0.55681992  0.58038362  0.87020531     0.16300
C401        C  0.46354396  0.31617045  0.10635056    -0.01900
C402        C  0.47597121  0.32977986  0.12738542     0.06700
C403        C  0.45875610  0.34729878  0.14513690    -0.07800
C404        C  0.42955841  0.35145366  0.14214120     0.04200
C405        C  0.41709604  0.33769688  0.12097882    -0.15100
C406        C  0.43449410  0.31948518  0.10347924    -0.08400
C407        C  0.50707033  0.33048624  0.12995286     0.05100
C408        C  0.52040198  0.37445999  0.13154297    -0.09500
C409        C  0.54955498  0.37820611  0.12934809     0.00100
C410        C  0.56620747  0.33691353  0.12535319     0.00000
C411        C  0.55284411  0.29248102  0.12559164    -0.13100
C412        C  0.52360788  0.28902168  0.12801433     0.00400
C413        C  0.56117274  0.42547217  0.13006832     0.39700
C414        C  0.51085526  0.24266665  0.12791076     0.36300
C415        C  0.48036179  0.30174523  0.08683419     0.36100
C416        C  0.41309432  0.36998949  0.16103545     0.36800
N417        N  0.57033649  0.46342786  0.13060600    -0.44000
N418        N  0.50050389  0.20560337  0.12783168    -0.44400
N419        N  0.39993780  0.38491858  0.17618141    -0.41800
N420        N  0.49391320  0.29040178  0.07121265    -0.43200
H421        H  0.42555944  0.30971235  0.08695827     0.13000
H422        H  0.46824316  0.35850553  0.16122902     0.09400
H423        H  0.50777880  0.40640854  0.13326067     0.10500
H424        H  0.56509730  0.26037219  0.12314760     0.16300
C425        C  0.33424294  0.45465372  0.00803605    -0.01900
C426        C  0.35284396  0.49319134  0.00592771     0.06700
C427        C  0.37090376  0.50359314  0.02438842    -0.07800
C428        C  0.37105973  0.47569886  0.04450052     0.04200
C429        C  0.35313169  0.43598242  0.04624936    -0.15100
C430        C  0.33484474  0.42617605  0.02781246    -0.08400
C431        C  0.35321863  0.52364570  0.98485790     0.05100
C432        C  0.34496738  0.57129192  0.98661116    -0.09500
C433        C  0.34348273  0.60059667  0.96707162     0.00100
C434        C  0.35077911  0.58240875  0.94497614     0.00000
C435        C  0.36013401  0.53501554  0.94355483    -0.13100
C436        C  0.36114319  0.50567618  0.96309040     0.00400
C437        C  0.33370017  0.64869774  0.97044487     0.39700
C438        C  0.37018035  0.45703626  0.96033419     0.36300
C439        C  0.31340236  0.44502287  0.99060933     0.36100
C440        C  0.39005402  0.48834619  0.06285033     0.36800
N441        N  0.32582038  0.68719416  0.97319936    -0.44000
N442        N  0.37719331  0.41793398  0.95813084    -0.44400
N443        N  0.40525965  0.49872203  0.07755015    -0.41800
N444        N  0.29661664  0.43759561  0.97667626    -0.43200
H445        H  0.32017245  0.39699502  0.02916146     0.13000
H446        H  0.38496716  0.53361376  0.02304628     0.09400
H447        H  0.33892685  0.58534622  0.00331196     0.10500
H448        H  0.36605785  0.52022026  0.92699134     0.16300
C449        C  0.22779755  0.94564558  0.87635455    -0.01900
C450        C  0.25728946  0.95022038  0.87596768     0.06700
C451        C  0.26890961  0.99585605  0.87740957    -0.07800
C452        C  0.25167007  0.03650468  0.87861751     0.04200
C453        C  0.22204526  0.03193683  0.87800603    -0.15100
C454        C  0.21065065  0.98606883  0.87693146    -0.08400
C455        C  0.27579004  0.90760176  0.87298551     0.05100
C456        C  0.27184752  0.87878575  0.85350876    -0.09500
C457        C  0.28466349  0.83410157  0.85180642     0.00100
C458        C  0.30252874  0.81772970  0.86956456     0.00000
C459        C  0.30869575  0.84852004  0.88795847    -0.13100
C460        C  0.29537013  0.89301440  0.88987952     0.00400
C461        C  0.27798370  0.80487545  0.83213815     0.39700
C462        C  0.30043393  0.92122100  0.91021579     0.36300
C463        C  0.21453228  0.89964457  0.87656618     0.36100
C464        C  0.26508554  0.08229099  0.87943065     0.36800
N465        N  0.27230589  0.78188014  0.81629916    -0.44000
N466        N  0.30455522  0.94382743  0.92651820    -0.44400
N467        N  0.27588586  0.11896910  0.88008619    -0.41800
N468        N  0.20392443  0.86278928  0.87682643    -0.43200
H469        H  0.18810387  0.98158451  0.87645997     0.13000
H470        H  0.29152300  0.99980393  0.87708352     0.09400
H471        H  0.25740465  0.89019559  0.84013899     0.10500
H472        H  0.32201738  0.83616520  0.90189998     0.16300
C473        C  0.19332209  0.38702601  0.89440275    -0.01900
C474        C  0.20897793  0.40184887  0.87511252     0.06700
C475        C  0.20886834  0.37377363  0.85514303    -0.07800
C476        C  0.19474607  0.33023009  0.85455271     0.04200
C477        C  0.18015415  0.31399931  0.87432546    -0.15100
C478        C  0.17891278  0.34377477  0.89380363    -0.08400
C479        C  0.22675316  0.44519223  0.87574072     0.05100
C480        C  0.25025800  0.44617404  0.89029158    -0.09500
C481        C  0.26831006  0.48537869  0.89066506     0.00100
C482        C  0.26298047  0.52492667  0.87620592     0.00000
C483        C  0.23907826  0.52397891  0.86192800    -0.13100
C484        C  0.22115972  0.48463222  0.86153002     0.00400
C485        C  0.29163688  0.48415219  0.90649630     0.39700
C486        C  0.19691332  0.48565146  0.84662242     0.36300
C487        C  0.19228015  0.41510980  0.91520493     0.36100
C488        C  0.19641033  0.30250124  0.83363259     0.36800
N489        N  0.31021068  0.48262873  0.91931031    -0.44000
N490        N  0.17742902  0.48625436  0.83472070    -0.44400
N491        N  0.19787251  0.28020626  0.81690836    -0.41800
N492        N  0.19146376  0.43756265  0.93189989    -0.43200
H493        H  0.16807787  0.33203263  0.90920583     0.13000
H494        H  0.22073935  0.38518351  0.84019825     0.09400
H495        H  0.25464186  0.41588805  0.90128968     0.10500
H496        H  0.23452290  0.55384886  0.85073101     0.16300
C497        C  0.23261384  0.28539713  0.96103611    -0.01900
C498        C  0.23092412  0.26378752  0.98295643     0.06700
C499        C  0.21808718  0.21926298  0.98505203    -0.07800
C500        C  0.20686179  0.19633329  0.96577658     0.04200
C501        C  0.20860193  0.21788982  0.94391854    -0.15100
C502        C  0.22171462  0.26211552  0.94171956    -0.08400
C503        C  0.24382689  0.28506343  0.00379645     0.05100
C504        C  0.22689016  0.29602291  0.02295115    -0.09500
C505        C  0.23887893  0.30945274  0.04409021     0.00100
C506        C  0.26831919  0.31186895  0.04617782     0.00000
C507        C  0.28500657  0.30319459  0.02658796    -0.13100
C508        C  0.27314348  0.28941103  0.00567986     0.00400
C509        C  0.22069939  0.31723775  0.06362117     0.39700
C510        C  0.29167759  0.27645616  0.98697720     0.36300
C511        C  0.24454700  0.33195719  0.95798123     0.36100
C512        C  0.19425346  0.15021639  0.96863941     0.36800
N513        N  0.20616781  0.32338988  0.07932707    -0.44000
N514        N  0.30652107  0.26599993  0.97201382    -0.44400
N515        N  0.18422543  0.11313517  0.97064633    -0.41800
N516        N  0.25405970  0.36922932  0.95524746    -0.43200
H517        H  0.22236414  0.27944313  0.92501891     0.13000
H518        H  0.21711394  0.20216662  0.00178615     0.09400
H519        H  0.20431410  0.29231667  0.02159512     0.10500
H520        H  0.30768312  0.30526272  0.02783197     0.16300
C521        C  0.25310046  0.78333316  0.96256565    -0.01900
C522        C  0.23597372  0.75405790  0.97623654     0.06700
C523        C  0.22953856  0.70797392  0.96853082    -0.07800
C524        C  0.24120116  0.69013978  0.94800400     0.04200
C525        C  0.25923747  0.71907330  0.93493564    -0.15100
C526        C  0.26409682  0.76597766  0.94204502    -0.08400
C527        C  0.22517207  0.77154218  0.99865058     0.05100
C528        C  0.20844214  0.81252054  0.99878445    -0.09500
C529        C  0.19958233  0.83286661  0.01946406     0.00100
C530        C  0.20716330  0.81174697  0.04067243     0.00000
C531        C  0.22418096  0.77093382  0.04058975    -0.13100
C532        C  0.23310511  0.75059504  0.01977739     0.00400
C533        C  0.18295069  0.87572132  0.01830726     0.39700
C534        C  0.25032287  0.70834616  0.02051432     0.36300
C535        C  0.26129230  0.83031759  0.96989248     0.36100
C536        C  0.23583650  0.64155847  0.94155327     0.36800
N537        N  0.16970265  0.91009641  0.01707249    -0.44000
N538        N  0.26398549  0.67431921  0.02105080    -0.44400
N539        N  0.23156897  0.60258386  0.93637836    -0.41800
N540        N  0.26795239  0.86788039  0.97574691    -0.43200
H541        H  0.27781762  0.78865916  0.93201467     0.13000
H542        H  0.21607299  0.68557438  0.97888820     0.09400
H543        H  0.20249252  0.82893454  0.98257557     0.10500
H544        H  0.22953649  0.75376310  0.05674589     0.16300
C545        C  0.11065275  0.07245298  0.98323071    -0.01900
C546        C  0.12058096  0.02587572  0.98662371     0.06700
C547        C  0.13177069  0.00093076  0.96783333    -0.07800
C548        C  0.13405394  0.02210160  0.94599986     0.04200
C549        C  0.12487800  0.06958289  0.94254610    -0.15100
C550        C  0.11282119  0.09377710  0.96145047    -0.08400
C551        C  0.12005370  0.00264674  0.00968334     0.05100
C552        C  0.10157451  0.96485680  0.01355491    -0.09500
C553        C  0.10203167  0.93955746  0.03440557     0.00100
C554        C  0.12149091  0.95179424  0.05184412     0.00000
C555        C  0.13902588  0.99115581  0.04827531    -0.13100
C556        C  0.13863956  0.01619083  0.02741330     0.00400
C557        C  0.08226312  0.90138954  0.03742242     0.39700
C558        C  0.15873164  0.05376973  0.02415279     0.36300
C559        C  0.09811914  0.09897405  0.00189808     0.36100
C560        C  0.14627627  0.99394532  0.92780584     0.36800
N561        N  0.06638781  0.87086896  0.03993219    -0.44000
N562        N  0.17499400  0.08372629  0.02175891    -0.44400
N563        N  0.15601998  0.97062903  0.91345429    -0.41800
N564        N  0.08806582  0.12008044  0.01690916    -0.43200
H565        H  0.10547969  0.12999815  0.95943292     0.13000
H566        H  0.13928159  0.96490925  0.97037754     0.09400
H567        H  0.08702561  0.95465649  0.00007218     0.10500
H568        H  0.15428647  0.00086411  0.06131301     0.16300
C569        C  0.20401836  0.63340437  0.08838819    -0.01900
C570        C  0.21227574  0.61218117  0.10936999     0.06700
C571        C  0.20533042  0.63479349  0.13021397    -0.07800
C572        C  0.19166942  0.67902776  0.13032533     0.04200
C573        C  0.18453098  0.70119693  0.10927638    -0.15100
C574        C  0.19008601  0.67724353  0.08851120    -0.08400
C575        C  0.22988143  0.56835242  0.10981315     0.05100
C576        C  0.25638067  0.56924156  0.09931987    -0.09500
C577        C  0.27390360  0.52923831  0.09937648     0.00100
C578        C  0.26541087  0.48730009  0.11087632     0.00000
C579        C  0.23862229  0.48637996  0.12112360    -0.13100
C580        C  0.22086275  0.52620620  0.12052624     0.00400
C581        C  0.29992967  0.53212228  0.08671005     0.39700
C582        C  0.19314062  0.52255727  0.13035602     0.36300
C583        C  0.21026392  0.61143383  0.06647159     0.36100
C584        C  0.18533207  0.70106855  0.15220184     0.36800
N585        N  0.32064608  0.53444768  0.07638281    -0.44000
N586        N  0.17084038  0.51962243  0.13808801    -0.44400
N587        N  0.18013788  0.71880247  0.16969577    -0.41800
N588        N  0.21544190  0.59386253  0.04893855    -0.43200
H589        H  0.18496883  0.69404884  0.07221071     0.13000
H590        H  0.21150051  0.61863960  0.14641594     0.09400
H591        H  0.26335494  0.60144355  0.09087654     0.10500
H592        H  0.23146089  0.45448350  0.12970743     0.16300
C593        C  0.26832888  0.01706786  0.11610971    -0.01900
C594        C  0.25787028  0.06393336  0.11755433     0.06700
C595        C  0.22868389  0.07105279  0.11672200    -0.07800
C596        C  0.21002899  0.03281199  0.11502602     0.04200
C597        C  0.22039123  0.98571310  0.11382926    -0.15100
C598        C  0.24968317  0.97865478  0.11416264    -0.08400
C599        C  0.27663611  0.10639733  0.11934575     0.05100
C600        C  0.29591443  0.11617879  0.10160806    -0.09500
C601        C  0.31017381  0.15980239  0.10068608     0.00100
C602        C  0.30509476  0.19473253  0.11768126     0.00000
C603        C  0.28753447  0.18339962  0.13630827    -0.13100
C604        C  0.27349466  0.13984291  0.13733429     0.00400
C605        C  0.32768182  0.16956804  0.08096641     0.39700
C606        C  0.25512027  0.13109557  0.15663905     0.36300
C607        C  0.29805186  0.00743462  0.11736239     0.36100
C608        C  0.18038464  0.04330540  0.11390136     0.36800
N609        N  0.34169742  0.17741839  0.06514628    -0.44000
N610        N  0.24035723  0.12425864  0.17210631    -0.44400
N611        N  0.15662753  0.05173944  0.11299941    -0.41800
N612        N  0.32189833  0.99983960  0.11837807    -0.43200
H613        H  0.25809099  0.94285283  0.11348158     0.13000
H614        H  0.22038144  0.10694996  0.11727714     0.09400
H615        H  0.29853583  0.09090102  0.08766461     0.10500
H616        H  0.28345610  0.20993363  0.14946805     0.16300
C617        C  0.95438413  0.20151453  0.85992952    -0.01900
C618        C  0.97426464  0.16624532  0.86576382     0.06700
C619        C  0.96481654  0.12306379  0.87484636    -0.07800
C620        C  0.93624298  0.11469191  0.87842847     0.04200
C621        C  0.91621460  0.15004520  0.87280754    -0.15100
C622        C  0.92562922  0.19330063  0.86358339    -0.08400
C623        C  0.00515893  0.17385824  0.86432475     0.05100
C624        C  0.01782178  0.20638855  0.87936269    -0.09500
C625        C  0.04707388  0.20707211  0.88238194     0.00100
C626        C  0.06426001  0.17411147  0.87040627     0.00000
C627        C  0.05151047  0.14343693  0.85441976    -0.13100
C628        C  0.02239844  0.14377177  0.85098789     0.00400
C629        C  0.05841942  0.23926240  0.89931845     0.39700
C630        C  0.01054269  0.11251823  0.83386381     0.36300
C631        C  0.96296072  0.24587411  0.84978748     0.36100
C632        C  0.92833861  0.07058953  0.88928061     0.36800
N633        N  0.06742532  0.26506510  0.91293978    -0.44000
N634        N  0.00101263  0.08788215  0.81997794    -0.44400
N635        N  0.92207674  0.03534071  0.89807845    -0.41800
N636        N  0.96975663  0.28138599  0.84153195    -0.43200
H637        H  0.91048796  0.22063285  0.85912490     0.13000
H638        H  0.98001000  0.09614976  0.87980140     0.09400
H639        H  0.00468926  0.22947005  0.88977160     0.10500
H640        H  0.06422182  0.11804709  0.84501466     0.16300
C641        C  0.74358393  0.25689870  0.95930919    -0.01900
C642        C  0.74328518  0.23339757  0.98077402     0.06700
C643        C  0.75492736  0.18765571  0.98253084    -0.07800
C644        C  0.76754917  0.16589915  0.96343317     0.04200
C645        C  0.76823015  0.18977302  0.94211338    -0.15100
C646        C  0.75580732  0.23481608  0.94016681    -0.08400
C647        C  0.73048408  0.25549102  0.00150048     0.05100
C648        C  0.70159776  0.26432582  0.00163892    -0.09500
C649        C  0.68826450  0.28246274  0.02124208     0.00100
C650        C  0.70404442  0.29157032  0.04160948     0.00000
C651        C  0.73325787  0.28428111  0.04099563    -0.13100
C652        C  0.74649216  0.26661117  0.02118638     0.00400
C653        C  0.65831775  0.29019614  0.01973154     0.39700
C654        C  0.77658193  0.26068092  0.02130047     0.36300
C655        C  0.73283961  0.30460014  0.95679676     0.36100
C656        C  0.77924484  0.11884538  0.96589225     0.36800
N657        N  0.63434379  0.29634357  0.01840972    -0.44000
N658        N  0.80071514  0.25608150  0.02127691    -0.44400
N659        N  0.78854963  0.08102688  0.96758857    -0.41800
N660        N  0.72437533  0.34291322  0.95475127    -0.43200
H661        H  0.75687172  0.25377103  0.92390848     0.13000
H662        H  0.75429694  0.16911250  0.99890283     0.09400
H663        H  0.68929500  0.25614730  0.98640179     0.10500
H664        H  0.74585040  0.29164966  0.05614882     0.16300
C665        C  0.77363491  0.35393900  0.85776139    -0.01900
C666        C  0.77534193  0.38369425  0.87724059     0.06700
C667        C  0.79200112  0.36945915  0.89591634    -0.07800
C668        C  0.80540624  0.32492660  0.89605260     0.04200
C669        C  0.80212364  0.29330712  0.87709617    -0.15100
C670        C  0.78691784  0.30940010  0.85779000    -0.08400
C671        C  0.75748112  0.42710636  0.87925019     0.05100
C672        C  0.72858730  0.42141160  0.88267834    -0.09500
C673        C  0.71038716  0.46059277  0.88326845     0.00100
C674        C  0.72101678  0.50710163  0.88038245     0.00000
C675        C  0.75020877  0.51283477  0.87790471    -0.13100
C676        C  0.76838523  0.47334751  0.87720915     0.00400
C677        C  0.68096460  0.45175904  0.88723556     0.39700
C678        C  0.79794921  0.48088391  0.87343969     0.36300
C679        C  0.75762617  0.36803314  0.83776500     0.36100
C680        C  0.82084806  0.31200018  0.91656212     0.36800
N681        N  0.65741838  0.44436414  0.89041048    -0.44000
N682        N  0.82165077  0.48685887  0.87032971    -0.44400
N683        N  0.83317988  0.30168031  0.93301989    -0.41800
N684        N  0.74480602  0.37963194  0.82177537    -0.43200
H685        H  0.78431023  0.28632363  0.84299153     0.13000
H686        H  0.79346339  0.39233547  0.91091178     0.09400
H687        H  0.72016259  0.38592134  0.88465025     0.10500
H688        H  0.75877712  0.54814231  0.87571682     0.16300
C689        C  0.70370118  0.85435151  0.85552076    -0.01900
C690        C  0.70759273  0.88272701  0.87529843     0.06700
C691        C  0.69670872  0.86722981  0.89641967    -0.07800
C692        C  0.68371932  0.82278516  0.89838850     0.04200
C693        C  0.68106621  0.79302059  0.87876396    -0.15100
C694        C  0.69050717  0.81008918  0.85736765    -0.08400
C695        C  0.72549927  0.92598449  0.87483402     0.05100
C696        C  0.71335586  0.97108289  0.87758410    -0.09500
C697        C  0.72992281  0.01232253  0.87738314     0.00100
C698        C  0.75943493  0.00875952  0.87459594     0.00000
C699        C  0.77137594  0.96320872  0.87212958    -0.13100
C700        C  0.75482771  0.92228549  0.87229597     0.00400
C701        C  0.71588611  0.05758234  0.87954765     0.39700
C702        C  0.76849579  0.87661076  0.87032820     0.36300
C703        C  0.71399244  0.86926512  0.83328580     0.36100
C704        C  0.67567460  0.80726649  0.92117232     0.36800
N705        N  0.70459887  0.09385902  0.88124023    -0.44000
N706        N  0.77935221  0.83994609  0.86874814    -0.44400
N707        N  0.66938513  0.79487099  0.93946764    -0.41800
N708        N  0.72233922  0.88120586  0.81548977    -0.43200
H709        H  0.68847120  0.78806922  0.84216498     0.13000
H710        H  0.69980304  0.88878252  0.91169189     0.09400
H711        H  0.69080185  0.97407147  0.87968403     0.10500
H712        H  0.79390537  0.95926854  0.87024902     0.16300
C713        C  0.02569659  0.84576699  0.14352860    -0.01900
C714        C  0.00912816  0.81762554  0.12870338     0.06700
C715        C  0.02251278  0.79163132  0.11120197    -0.07800
C716        C  0.05148807  0.79572462  0.10736911     0.04200
C717        C  0.06765962  0.82737421  0.12091287    -0.15100
C718        C  0.05452490  0.85099188  0.13934435    -0.08400
C719        C  0.97778854  0.82092044  0.12875936     0.05100
C720        C  0.96554831  0.86560164  0.12523889    -0.09500
C721        C  0.93655421  0.87107843  0.12259684     0.00100
C722        C  0.91869911  0.83082807  0.12304678     0.00000
C723        C  0.93093903  0.78603038  0.12721802    -0.13100
C724        C  0.96013699  0.78089147  0.13021803     0.00400
C725        C  0.92624358  0.91859905  0.11843998     0.39700
C726        C  0.97148747  0.73445091  0.13516638     0.36300
C727        C  0.01344744  0.86987449  0.16306695     0.36100
C728        C  0.06350958  0.76937700  0.08840405     0.36800
N729        N  0.91807608  0.95674068  0.11516488    -0.44000
N730        N  0.98060326  0.69728579  0.13929122    -0.44400
N731        N  0.07309789  0.74805093  0.07325677    -0.41800
N732        N  0.00360330  0.88886867  0.17881573    -0.43200
H733        H  0.06673154  0.87431879  0.15029317     0.13000
H734        H  0.01003179  0.76996897  0.09966574     0.09400
H735        H  0.97893370  0.89652927  0.12381652     0.10500
H736        H  0.91772001  0.75484378  0.12799432     0.16300
C737        C  0.83507677  0.98040934  0.96639886    -0.01900
C738        C  0.85560336  0.99199985  0.98292729     0.06700
C739        C  0.87572480  0.02640432  0.97772157    -0.07800
C740        C  0.87498588  0.05076507  0.95668249     0.04200
C741        C  0.85386786  0.04038731  0.94029300    -0.15100
C742        C  0.83452463  0.00421056  0.94519570    -0.08400
C743        C  0.85585375  0.96983215  0.00608012     0.05100
C744        C  0.87428121  0.93205817  0.01050627    -0.09500
C745        C  0.87458321  0.90952995  0.03206724     0.00100
C746        C  0.85602244  0.92489354  0.04966460     0.00000
C747        C  0.83826179  0.96384291  0.04524931    -0.13100
C748        C  0.83807156  0.98626710  0.02376152     0.00400
C749        C  0.89442025  0.87136550  0.03561889     0.39700
C750        C  0.81938918  0.02607473  0.02030058     0.36300
C751        C  0.81390661  0.94524020  0.97113704     0.36100
C752        C  0.89622442  0.08605619  0.95240704     0.36800
N753        N  0.91039043  0.84087080  0.03845163    -0.44000
N754        N  0.80439939  0.05806911  0.01783296    -0.44400
N755        N  0.91323087  0.11436987  0.94897969    -0.41800
N756        N  0.79687987  0.91719688  0.97499212    -0.43200
H757        H  0.81809443  0.99601292  0.93290227     0.13000
H758        H  0.89167399  0.03497472  0.99037584     0.09400
H759        H  0.88831516  0.91994598  0.99699229     0.10500
H760        H  0.82381262  0.97616216  0.05841482     0.22700
C761        C  0.77964852  0.73914861  0.01064334    -0.01900
C762        C  0.75096645  0.74716478  0.00636863     0.06700
C763        C  0.73493415  0.77300250  0.02238887    -0.07800
C764        C  0.74718842  0.79101707  0.04254060     0.04200
C765        C  0.77600007  0.78304089  0.04678763    -0.15100
C766        C  0.79188653  0.75730158  0.03057561    -0.08400
C767        C  0.73718699  0.72724364  0.98568957     0.05100
C768        C  0.71720023  0.69145039  0.98860848    -0.09500
C769        C  0.70390103  0.67099371  0.96957080     0.00100
C770        C  0.71058275  0.68662100  0.94707911     0.00000
C771        C  0.73105372  0.72185462  0.94421894    -0.13100
C772        C  0.74420098  0.74243035  0.96327419     0.00400
C773        C  0.68393723  0.63352176  0.97366183     0.39700
C774        C  0.76416952  0.78001011  0.95943070     0.36300
C775        C  0.79675170  0.71096633  0.99524805     0.36100
C776        C  0.72995901  0.81834892  0.05817262     0.36800
N777        N  0.66800348  0.60346346  0.97705674    -0.44000
N778        N  0.78025143  0.80996770  0.95630670    -0.44400
N779        N  0.71619129  0.84033373  0.07070591    -0.41800
N780        N  0.81047567  0.68847121  0.98290208    -0.43200
H781        H  0.81393828  0.75012788  0.03374360     0.13000
H782        H  0.71280731  0.77911195  0.01908924     0.09400
H783        H  0.71211833  0.67929764  0.00584330     0.10500
H784        H  0.73599374  0.73480032  0.92709233     0.16300
C785        C  0.68979928  0.10876387  0.09518210    -0.01900
C786        C  0.70630729  0.09326690  0.11395536     0.06700
C787        C  0.70778964  0.12200274  0.13368235    -0.07800
C788        C  0.69454867  0.16662875  0.13443248     0.04200
C789        C  0.67981014  0.18396468  0.11494981    -0.15100
C790        C  0.67672019  0.15364422  0.09580897    -0.08400
C791        C  0.72436238  0.04974656  0.11264868     0.05100
C792        C  0.75340101  0.05543422  0.11007249    -0.09500
C793        C  0.77161018  0.01617706  0.10952024     0.00100
C794        C  0.76094613  0.96953770  0.11190672     0.00000
C795        C  0.73168687  0.96381647  0.11382090    -0.13100
C796        C  0.71346643  0.00336655  0.11426788     0.00400
C797        C  0.80109261  0.02500294  0.10580451     0.39700
C798        C  0.68376188  0.99570842  0.11708377     0.36300
C799        C  0.68740672  0.08043807  0.07455134     0.36100
C800        C  0.69660376  0.19403126  0.15539597     0.36800
N801        N  0.82468794  0.03216233  0.10273975    -0.44000
N802        N  0.65991872  0.98972097  0.11933249    -0.44400
N803        N  0.69806441  0.21580470  0.17226641    -0.41800
N804        N  0.68544556  0.05762331  0.05804305    -0.43200
H805        H  0.66563495  0.16620279  0.08065064     0.13000
H806        H  0.72002277  0.11002475  0.14835227     0.09400
H807        H  0.76190146  0.09092072  0.10843797     0.10500
H808        H  0.72306730  0.92847404  0.11563351     0.16300
C809        C  0.79386369  0.60764588  0.10084905    -0.01900
C810        C  0.77816091  0.59248650  0.12007509     0.06700
C811        C  0.77756410  0.62129221  0.13986576    -0.07800
C812        C  0.79010245  0.66630884  0.13998604     0.04200
C813        C  0.80411501  0.68305475  0.12009731    -0.15100
C814        C  0.80687698  0.65223261  0.10109972    -0.08400
C815        C  0.75974499  0.54968977  0.11892933     0.05100
C816        C  0.77138926  0.50437592  0.11523613    -0.09500
C817        C  0.75423039  0.46399319  0.11333811     0.00100
C818        C  0.72471066  0.46855326  0.11516478     0.00000
C819        C  0.71330644  0.51397396  0.11916269    -0.13100
C820        C  0.73033987  0.55412783  0.12081548     0.00400
C821        C  0.76758426  0.41832868  0.11040855     0.39700
C822        C  0.71697047  0.59984789  0.12372246     0.36300
C823        C  0.79489306  0.57994589  0.07991661     0.36100
C824        C  0.78742381  0.69508707  0.16047836     0.36800
N825        N  0.77824568  0.38164734  0.10814916    -0.44000
N826        N  0.70630352  0.63650355  0.12604648    -0.44400
N827        N  0.78520458  0.71820831  0.17687697    -0.41800
N828        N  0.79561615  0.55772500  0.06314432    -0.43200
H829        H  0.81736540  0.66439460  0.08561391     0.13000
H830        H  0.76598484  0.60952716  0.15489245     0.09400
H831        H  0.79397668  0.50054589  0.11393344     0.10500
H832        H  0.69077409  0.51844807  0.12069581     0.16300
C833        C  0.69847626  0.61814057  0.72174995    -0.01900
C834        C  0.67292870  0.62552825  0.73354010     0.06700
C835        C  0.64847658  0.63440222  0.72075792    -0.07800
C836        C  0.64896867  0.63454242  0.69660268     0.04200
C837        C  0.67441687  0.62551887  0.68474035    -0.15100
C838        C  0.69904220  0.61837661  0.69760329    -0.08400
C839        C  0.67131883  0.62418615  0.75916652     0.05100
C840        C  0.68686935  0.65695354  0.77206626    -0.09500
C841        C  0.68648727  0.65619941  0.79621212     0.00100
C842        C  0.66980547  0.62255091  0.80797697     0.00000
C843        C  0.65386526  0.59029277  0.79498835    -0.13100
C844        C  0.65469158  0.59056506  0.77084303     0.00400
C845        C  0.70306713  0.69099956  0.80830601     0.39700
C846        C  0.63913377  0.55483944  0.75845768     0.36300
C847        C  0.72420528  0.60843588  0.73403966     0.36100
C848        C  0.62319427  0.64537822  0.68454819     0.36800
N849        N  0.71657213  0.71882128  0.81784269    -0.44000
N850        N  0.62672708  0.52611753  0.74854252    -0.44400
N851        N  0.60251826  0.65420997  0.67497154    -0.41800
N852        N  0.74481459  0.60072695  0.74392413    -0.43200
H853        H  0.71869910  0.61147562  0.68877999     0.13000
H854        H  0.62890695  0.64124482  0.72973095     0.09400
H855        H  0.69944998  0.68320254  0.76318335     0.10500
H856        H  0.64120717  0.56395202  0.80372759     0.16300
C857        C  0.68654609  0.39225457  0.26955046    -0.01900
C858        C  0.67914517  0.35054556  0.25769087     0.06700
C859        C  0.67301268  0.30919227  0.27005422    -0.07800
C860        C  0.67401958  0.30907307  0.29415920     0.04200
C861        C  0.68101092  0.35106794  0.30607015    -0.15100
C862        C  0.68709465  0.39241075  0.29363379    -0.08400
C863        C  0.67698047  0.34995851  0.23234498     0.05100
C864        C  0.70014083  0.33529917  0.21934513    -0.09500
C865        C  0.69940870  0.33664048  0.19523263     0.00100
C866        C  0.67487094  0.35283898  0.18374034     0.00000
C867        C  0.65152141  0.36664357  0.19710016    -0.13100
C868        C  0.65245143  0.36540817  0.22115364     0.00400
C869        C  0.72433623  0.32168829  0.18304933     0.39700
C870        C  0.62809117  0.38052642  0.23406592     0.36300
C871        C  0.69404987  0.43493806  0.25729409     0.36100
C872        C  0.66658323  0.26617892  0.30628225     0.36800
N873        N  0.74433649  0.30959860  0.17334121    -0.44000
N874        N  0.60860774  0.39262912  0.24445042    -0.44400
N875        N  0.66051875  0.23187260  0.31600301    -0.41800
N876        N  0.70025073  0.46896722  0.24740667    -0.43200
H877        H  0.69273863  0.42458634  0.30275093     0.13000
H878        H  0.66716438  0.27723415  0.26085282     0.09400
H879        H  0.71900631  0.32344704  0.22812264     0.10500
H880        H  0.63244002  0.37894927  0.18882159     0.16300
C881        C  0.62458684  0.41842099  0.48409159    -0.01900
C882        C  0.62877899  0.46793093  0.48532348     0.06700
C883        C  0.63481562  0.49293413  0.46500435    -0.07800
C884        C  0.63780733  0.46933515  0.44388825     0.04200
C885        C  0.63555497  0.41929352  0.44297729    -0.15100
C886        C  0.62822033  0.39466589  0.46314420    -0.08400
C887        C  0.62995815  0.49322217  0.50784909     0.05100
C888        C  0.64846073  0.47616701  0.52475639    -0.09500
C889        C  0.65169185  0.49954706  0.54581554     0.00100
C890        C  0.63673085  0.54213753  0.55016022     0.00000
C891        C  0.61803005  0.55907176  0.53324740    -0.13100
C892        C  0.61443340  0.53498574  0.51232116     0.00400
C893        C  0.67137901  0.47946628  0.56204900     0.39700
C894        C  0.59464666  0.55383184  0.49581011     0.36300
C895        C  0.61697194  0.39101417  0.50415978     0.36100
C896        C  0.64450246  0.49739207  0.42383088     0.36800
N897        N  0.68712835  0.46269065  0.57487846    -0.44000
N898        N  0.57886187  0.56915739  0.48257450    -0.44400
N899        N  0.64962701  0.52017085  0.40779621    -0.41800
N900        N  0.61101405  0.36904761  0.52026842    -0.43200
H901        H  0.62579187  0.35640398  0.46267218     0.13000
H902        H  0.63836011  0.53090764  0.46577747     0.09400
H903        H  0.66099756  0.44474869  0.52127661     0.10500
H904        H  0.60626675  0.59150161  0.53627763     0.16300
C905        C  0.29805371  0.62008618  0.71559191    -0.01900
C906        C  0.31898204  0.63994282  0.72975775     0.06700
C907        C  0.34230947  0.66167206  0.71954481    -0.07800
C908        C  0.34500058  0.66382333  0.69552120     0.04200
C909        C  0.32382921  0.64457507  0.68134169    -0.15100
C910        C  0.30044665  0.62305439  0.69157358    -0.08400
C911        C  0.31665680  0.63948429  0.75526889     0.05100
C912        C  0.32035680  0.59668632  0.76723120    -0.09500
C913        C  0.31882740  0.59524937  0.79137453     0.00100
C914        C  0.31384297  0.63747133  0.80399027     0.00000
C915        C  0.30973374  0.68009004  0.79182407    -0.13100
C916        C  0.31094612  0.68133225  0.76771382     0.00400
C917        C  0.32128883  0.54969674  0.80259066     0.39700
C918        C  0.30561605  0.72571728  0.75602978     0.36300
C919        C  0.27386743  0.59689088  0.72532918     0.36100
C920        C  0.36905980  0.68761137  0.68585956     0.36800
N921        N  0.32309660  0.51315183  0.81157344    -0.44000
N922        N  0.30119213  0.76112239  0.74657752    -0.44400
N923        N  0.38828200  0.70682336  0.67811531    -0.41800
N924        N  0.25453761  0.57808380  0.73312156    -0.43200
H925        H  0.28423824  0.60782550  0.68075564     0.13000
H926        H  0.35839073  0.67711684  0.73041162     0.09400
H927        H  0.32435516  0.56432348  0.75764647     0.10500
H928        H  0.30585599  0.71266102  0.80117384     0.16300
C929        C  0.47484330  0.71361378  0.60902030    -0.01900
C930        C  0.48848899  0.68247107  0.62447021     0.06700
C931        C  0.47229263  0.65501194  0.63957787    -0.07800
C932        C  0.44299807  0.65477301  0.63799285     0.04200
C933        C  0.42935650  0.68348545  0.62141461    -0.15100
C934        C  0.44547638  0.71431300  0.60782119    -0.08400
C935        C  0.51921412  0.67346889  0.62308366     0.05100
C936        C  0.53828577  0.71024966  0.62748357    -0.09500
C937        C  0.56727459  0.70303727  0.62480088     0.00100
C938        C  0.57752175  0.65819897  0.61771605     0.00000
C939        C  0.55839675  0.62122121  0.61400581    -0.13100
C940        C  0.52956669  0.62849965  0.61644044     0.00400
C941        C  0.58601705  0.74173092  0.62993713     0.39700
C942        C  0.51095978  0.58973673  0.61096909     0.36300
C943        C  0.49049436  0.74211419  0.59287714     0.36100
C944        C  0.42756490  0.62357178  0.65307005     0.36800
N945        N  0.60112599  0.77260560  0.63410808    -0.44000
N946        N  0.49602799  0.55872849  0.60660696    -0.44400
N947        N  0.41525006  0.59846499  0.66513604    -0.41800
N948        N  0.50307661  0.76484517  0.57991829    -0.43200
H949        H  0.43525963  0.73635767  0.59496561     0.13000
H950        H  0.48268686  0.63159434  0.65175250     0.09400
H951        H  0.53046246  0.74473441  0.63283437     0.10500
H952        H  0.56591552  0.58671949  0.60836613     0.16300
C953        C  0.29536523  0.37057697  0.27227948    -0.01900
C954        C  0.31928132  0.36438244  0.25836092     0.06700
C955        C  0.34583590  0.36288663  0.26871560    -0.07800
C956        C  0.34891514  0.36884339  0.29260699     0.04200
C957        C  0.32499383  0.37738998  0.30657650    -0.15100
C958        C  0.29833788  0.37695678  0.29611229    -0.08400
C959        C  0.31716534  0.36424489  0.23282541     0.05100
C960        C  0.31951468  0.40760571  0.22125557    -0.09500
C961        C  0.31731507  0.41010182  0.19722973     0.00100
C962        C  0.31297457  0.36830613  0.18416364     0.00000
C963        C  0.31013040  0.32484693  0.19589386    -0.13100
C964        C  0.31221017  0.32256383  0.22004353     0.00400
C965        C  0.31841270  0.45639569  0.18661617     0.39700
C966        C  0.30931680  0.27725111  0.23136511     0.36300
C967        C  0.26761548  0.37169380  0.26232308     0.36100
C968        C  0.37679605  0.36501351  0.30222363     0.36800
N969        N  0.31914397  0.49353323  0.17813881    -0.44000
N970        N  0.30696509  0.24093238  0.24045017    -0.44400
N971        N  0.39912664  0.36173939  0.30992178    -0.41800
N972        N  0.24539932  0.37249220  0.25428389    -0.43200
H973        H  0.27969651  0.38269854  0.30647829     0.13000
H974        H  0.36426219  0.35772891  0.25801208     0.09400
H975        H  0.32279595  0.43982433  0.23113448     0.10500
H976        H  0.30674756  0.29248012  0.18616985     0.16300
C977        C  0.47901236  0.38263382  0.36781631    -0.01900
C978        C  0.48939086  0.33775153  0.36120840     0.06700
C979        C  0.47033867  0.30079036  0.35712116    -0.07800
C980        C  0.44130384  0.30780514  0.36013850     0.04200
C981        C  0.43097694  0.35252351  0.36738165    -0.15100
C982        C  0.45013044  0.38979481  0.37054292    -0.08400
C983        C  0.52007527  0.32782812  0.36192908     0.05100
C984        C  0.53105626  0.30801209  0.38212214    -0.09500
C985        C  0.56000400  0.30679755  0.38619048     0.00100
C986        C  0.57891265  0.32519737  0.36953743     0.00000
C987        C  0.56779464  0.34256123  0.34865173    -0.13100
C988        C  0.53867500  0.34409224  0.34478849     0.00400
C989        C  0.56915316  0.29011578  0.40851345     0.39700
C990        C  0.52830477  0.36376219  0.32344460     0.36300
C991        C  0.49782156  0.42093425  0.37354930     0.36100
C992        C  0.42261042  0.26873381  0.35563723     0.36800
N993        N  0.57631072  0.27701479  0.42649288    -0.44000
N994        N  0.52010040  0.37941901  0.30626596    -0.44400
N995        N  0.40755250  0.23750662  0.35200116    -0.41800
N996        N  0.51299571  0.45133713  0.37832848    -0.43200
H997        H  0.44266563  0.42419717  0.37634258     0.13000
H998        H  0.47823877  0.26608655  0.35222472     0.09400
H999        H  0.51676535  0.29605705  0.39545237     0.10500
H1000       H  0.58180615  0.35647449  0.33559681     0.16300
C1001       C  0.35938096  0.53512885  0.46139038    -0.01900
C1002       C  0.37732865  0.52042726  0.47937181     0.06700
C1003       C  0.39506397  0.48126270  0.47592659    -0.07800
C1004       C  0.39420973  0.45534039  0.45530517     0.04200
C1005       C  0.37546391  0.46900233  0.43751223    -0.15100
C1006       C  0.35881674  0.50982511  0.44066287    -0.08400
C1007       C  0.37580102  0.54260005  0.50255394     0.05100
C1008       C  0.35058982  0.53909173  0.51482926    -0.09500
C1009       C  0.34750162  0.56043831  0.53639781     0.00100
C1010       C  0.37022119  0.58500711  0.54639785     0.00000
C1011       C  0.39554649  0.58855940  0.53416689    -0.13100
C1012       C  0.39853933  0.56730848  0.51240163     0.00400
C1013       C  0.32008858  0.55969272  0.54698898     0.39700
C1014       C  0.42473790  0.57243564  0.50020929     0.36300
C1015       C  0.34062320  0.57515731  0.46409727     0.36100
C1016       C  0.41240763  0.41447400  0.45321202     0.36800
N1017       N  0.29793860  0.55945030  0.55513036    -0.44000
N1018       N  0.44573477  0.57648940  0.49041279    -0.44400
N1019       N  0.42692612  0.38161606  0.45161592    -0.41800
N1020       N  0.32544165  0.60697879  0.46635187    -0.43200
H1021       H  0.34418115  0.52076619  0.42735140     0.13000
H1022       H  0.40879906  0.46977442  0.48976558     0.09400
H1023       H  0.33301109  0.52036188  0.50725407     0.10500
H1024       H  0.41291002  0.60808276  0.54157648     0.16300
C1025       C  0.19700232  0.15609874  0.77157979    -0.01900
C1026       C  0.17270218  0.15698137  0.75776951     0.06700
C1027       C  0.14636661  0.15392249  0.76837393    -0.07800
C1028       C  0.14391327  0.14954472  0.79239278     0.04200
C1029       C  0.16829994  0.14681896  0.80634257    -0.15100
C1030       C  0.19466643  0.15092584  0.79553758    -0.08400
C1031       C  0.17440704  0.15736588  0.73216613     0.05100
C1032       C  0.16840392  0.11540383  0.72026912    -0.09500
C1033       C  0.17062148  0.11292733  0.69622850     0.00100
C1034       C  0.17929598  0.15325294  0.68346633     0.00000
C1035       C  0.18498421  0.19552984  0.69551045    -0.13100
C1036       C  0.18233311  0.19797139  0.71959943     0.00400
C1037       C  0.16438626  0.06804241  0.68538392     0.39700
C1038       C  0.18701536  0.24277486  0.73100083     0.36300
C1039       C  0.22459871  0.15918371  0.76145561     0.36100
C1040       C  0.11605500  0.14978683  0.80205239     0.36800
N1041       N  0.15925260  0.03205412  0.67677411    -0.44000
N1042       N  0.19057321  0.27880817  0.74009490    -0.44400
N1043       N  0.09354126  0.15055564  0.80946636    -0.41800
N1044       N  0.24669197  0.16182478  0.75330803    -0.43200
H1045       H  0.21368686  0.14953906  0.80578343     0.13000
H1046       H  0.12760865  0.15503258  0.75778129     0.09400
H1047       H  0.16221282  0.08415823  0.72990933     0.10500
H1048       H  0.19101828  0.22708541  0.68606184     0.16300
C1049       C  0.30403116  0.90005262  0.59853417    -0.01900
C1050       C  0.28726172  0.91368923  0.61743785     0.06700
C1051       C  0.28552912  0.88337994  0.63657015    -0.07800
C1052       C  0.29879230  0.83877964  0.63652685     0.04200
C1053       C  0.31402840  0.82352992  0.61688028    -0.15100
C1054       C  0.31738034  0.85558087  0.59846284    -0.08400
C1055       C  0.26882615  0.95650894  0.61646503     0.05100
C1056       C  0.23991299  0.94996673  0.61358967    -0.09500
C1057       C  0.22143349  0.98869682  0.61204039     0.00100
C1058       C  0.23179348  0.03574780  0.61362785     0.00000
C1059       C  0.26094185  0.04200688  0.61654391    -0.13100
C1060       C  0.27937680  0.00304667  0.61786669     0.00400
C1061       C  0.19199547  0.97847122  0.60909731     0.39700
C1062       C  0.30897471  0.01162194  0.62094304     0.36300
C1063       C  0.30608022  0.92955617  0.57826868     0.36100
C1064       C  0.29574436  0.80903037  0.65663697     0.36800
N1065       N  0.16843912  0.97001212  0.60668596    -0.44000
N1066       N  0.33270932  0.01853650  0.62334850    -0.44400
N1067       N  0.29331902  0.78511118  0.67272317    -0.41800
N1068       N  0.30765199  0.95321526  0.56202480    -0.43200
H1069       H  0.32881669  0.84468379  0.58318211     0.13000
H1070       H  0.27287775  0.89392169  0.65125558     0.09400
H1071       H  0.23174223  0.91416791  0.61238048     0.10500
H1072       H  0.26947702  0.07751363  0.61782996     0.16300
C1073       C  0.22391918  0.38516450  0.63554044    -0.01900
C1074       C  0.21947930  0.41786731  0.61746399     0.06700
C1075       C  0.19960058  0.40710659  0.60038173    -0.07800
C1076       C  0.18586253  0.36304683  0.60013304     0.04200
C1077       C  0.19173470  0.32905089  0.61742143    -0.15100
C1078       C  0.21006358  0.34139789  0.63540950    -0.08400
C1079       C  0.23779679  0.46032745  0.61462182     0.05100
C1080       C  0.26644283  0.45319757  0.61017242    -0.09500
C1081       C  0.28479766  0.49158595  0.60771599     0.00100
C1082       C  0.27458200  0.53868732  0.60966272     0.00000
C1083       C  0.24569101  0.54580146  0.61333948    -0.13100
C1084       C  0.22736434  0.50717429  0.61591546     0.00400
C1085       C  0.31388628  0.48141682  0.60267189     0.39700
C1086       C  0.19819286  0.51639314  0.62086806     0.36300
C1087       C  0.24360028  0.39484084  0.65385919     0.36100
C1088       C  0.16843284  0.35167587  0.58055401     0.36800
N1089       N  0.33715509  0.47311605  0.59856861    -0.44000
N1090       N  0.17481317  0.52378505  0.62492386    -0.44400
N1091       N  0.15464443  0.34245886  0.56476365    -0.41800
N1092       N  0.25941854  0.40247169  0.66852348    -0.43200
H1093       H  0.21492676  0.31548496  0.64867089     0.13000
H1094       H  0.19623884  0.43187965  0.58633443     0.09400
H1095       H  0.27451667  0.41726755  0.60864558     0.10500
H1096       H  0.23754105  0.58162526  0.61504773     0.16300
C1097       C  0.22503932  0.25029295  0.50809772    -0.01900
C1098       C  0.25431802  0.25628764  0.50679329     0.06700
C1099       C  0.27102495  0.24265265  0.52571956    -0.07800
C1100       C  0.25883490  0.22424147  0.54594118     0.04200
C1101       C  0.22940121  0.21961156  0.54738077    -0.15100
C1102       C  0.21306073  0.23148338  0.52797116    -0.08400
C1103       C  0.26743573  0.27815161  0.48607527     0.05100
C1104       C  0.28158344  0.32160983  0.48827615    -0.09500
C1105       C  0.29300891  0.34434184  0.46889995     0.00100
C1106       C  0.28983303  0.32387004  0.44684617     0.00000
C1107       C  0.27530139  0.28095277  0.44465867    -0.13100
C1108       C  0.26472175  0.25753457  0.46399804     0.00400
C1109       C  0.30715828  0.38913003  0.47196092     0.39700
C1110       C  0.25211781  0.21149176  0.46077717     0.36300
C1111       C  0.20650773  0.26556365  0.48979534     0.36100
C1112       C  0.27680130  0.21240161  0.56512751     0.36800
N1113       N  0.31836838  0.42512595  0.47443948    -0.44000
N1114       N  0.24201981  0.17463968  0.45807708    -0.44400
N1115       N  0.29124040  0.20277899  0.58048751    -0.41800
N1116       N  0.19158087  0.27760454  0.47516672    -0.43200
H1117       H  0.19042074  0.22775883  0.52857378     0.13000
H1118       H  0.29358320  0.24709755  0.52480165     0.09400
H1119       H  0.28349806  0.33793440  0.50512645     0.10500
H1120       H  0.27342533  0.26437862  0.42784984     0.16300
C1121       C  0.15325279  0.90164579  0.26837409    -0.01900
C1122       C  0.17566112  0.88110484  0.25600923     0.06700
C1123       C  0.19967184  0.86610700  0.26787242    -0.07800
C1124       C  0.20152592  0.87029553  0.29184127     0.04200
C1125       C  0.17871811  0.88967227  0.30451617    -0.15100
C1126       C  0.15482684  0.90535370  0.29237768    -0.08400
C1127       C  0.17495123  0.87605559  0.23060598     0.05100
C1128       C  0.19466712  0.90090215  0.21740277    -0.09500
C1129       C  0.19449622  0.89788553  0.19334630     0.00100
C1130       C  0.17399900  0.87017063  0.18219225     0.00000
C1131       C  0.15462245  0.84456038  0.19538127    -0.13100
C1132       C  0.15532581  0.84652175  0.21947752     0.00400
C1133       C  0.21473258  0.92521219  0.18049713     0.39700
C1134       C  0.13635941  0.81695002  0.23244401     0.36300
C1135       C  0.12879532  0.92044825  0.25677906     0.36100
C1136       C  0.22717896  0.85426629  0.30263003     0.36800
N1137       N  0.23100124  0.94706748  0.17024629    -0.44000
N1138       N  0.12132476  0.79307304  0.24290128    -0.44400
N1139       N  0.24781277  0.84144586  0.31116100    -0.41800
N1140       N  0.10919396  0.93559072  0.24753121    -0.43200
H1141       H  0.13729402  0.92101054  0.30159080     0.13000
H1142       H  0.21705983  0.85085756  0.25829616     0.09400
H1143       H  0.20997666  0.92322420  0.22593710     0.10500
H1144       H  0.13909302  0.82271793  0.18682028     0.16300
C1145       C  0.23577567  0.83421169  0.48361333    -0.01900
C1146       C  0.25348280  0.79406420  0.48223349     0.06700
C1147       C  0.25887469  0.77365610  0.46061498    -0.07800
C1148       C  0.24641396  0.79174845  0.44062874     0.04200
C1149       C  0.22697934  0.82970415  0.44223811    -0.15100
C1150       C  0.22216624  0.85095128  0.46379076    -0.08400
C1151       C  0.26620751  0.77218094  0.50310449     0.05100
C1152       C  0.24869801  0.75555713  0.52081183    -0.09500
C1153       C  0.25990025  0.73416286  0.54064791     0.00100
C1154       C  0.28926858  0.72831362  0.54281918     0.00000
C1155       C  0.30660329  0.74445200  0.52476973    -0.13100
C1156       C  0.29544181  0.76648514  0.50524682     0.00400
C1157       C  0.24070940  0.71866765  0.55831585     0.39700
C1158       C  0.31455043  0.78465837  0.48808175     0.36300
C1159       C  0.23203941  0.85962312  0.50501698     0.36100
C1160       C  0.25339391  0.76953641  0.41890725     0.36800
N1161       N  0.22529043  0.70642069  0.57250117    -0.44000
N1162       N  0.32984500  0.79926581  0.47434352    -0.44400
N1163       N  0.25940168  0.75203019  0.40153406    -0.41800
N1164       N  0.22942148  0.88018831  0.52215853    -0.43200
H1165       H  0.20779803  0.88078167  0.46512400     0.13000
H1166       H  0.27265884  0.74302833  0.45938963     0.09400
H1167       H  0.22613908  0.75934790  0.51910584     0.10500
H1168       H  0.32922499  0.74125295  0.52610721     0.16300
C1169       C  0.14898237  0.03866501  0.46216550    -0.01900
C1170       C  0.12969233  0.02454923  0.47916992     0.06700
C1171       C  0.11193624  0.98600668  0.47491500    -0.07800
C1172       C  0.11418082  0.95995298  0.45438935     0.04200
C1173       C  0.13469850  0.97239340  0.43783949    -0.15100
C1174       C  0.15122598  0.01284044  0.44167286    -0.08400
C1175       C  0.13016138  0.04651146  0.50234438     0.05100
C1176       C  0.11721725  0.09067986  0.50582616    -0.09500
C1177       C  0.12042566  0.11486765  0.52677240     0.00100
C1178       C  0.13685536  0.09468522  0.54455069     0.00000
C1179       C  0.14871919  0.04949242  0.54135602    -0.13100
C1180       C  0.14567720  0.02554031  0.52037200     0.00400
C1181       C  0.10640244  0.15997401  0.52976716     0.39700
C1182       C  0.15987579  0.98063495  0.51717105     0.36300
C1183       C  0.16790690  0.07776546  0.46602251     0.36100
C1184       C  0.09522109  0.92078257  0.45082619     0.36800
N1185       N  0.09510911  0.19602892  0.53231383    -0.44000
N1186       N  0.17124304  0.94473340  0.51436100    -0.44400
N1187       N  0.07999619  0.88946095  0.44791676    -0.41800
N1188       N  0.18311014  0.10898953  0.46921225    -0.43200
H1189       H  0.16701913  0.02296077  0.42917763     0.13000
H1190       H  0.09693332  0.97542781  0.48795969     0.09400
H1191       H  0.10518660  0.10670351  0.49197529     0.10500
H1192       H  0.16147445  0.03385174  0.55488083     0.16300
C1193       C  0.27362229  0.59261426  0.37103990    -0.01900
C1194       C  0.24517643  0.59152840  0.37778512     0.06700
C1195       C  0.23360580  0.54806210  0.38468315    -0.07800
C1196       C  0.24967375  0.50609163  0.38472251     0.04200
C1197       C  0.27818493  0.50691133  0.37767507    -0.15100
C1198       C  0.28970793  0.55078994  0.37101233    -0.08400
C1199       C  0.22720804  0.63524967  0.37741727     0.05100
C1200       C  0.22324937  0.65962607  0.35653428    -0.09500
C1201       C  0.20860422  0.70295030  0.35572537     0.00100
C1202       C  0.19703711  0.72255689  0.37609882     0.00000
C1203       C  0.19949085  0.69647097  0.39672180    -0.13100
C1204       C  0.21467172  0.65367564  0.39759309     0.00400
C1205       C  0.20607970  0.72664480  0.33376456     0.39700
C1206       C  0.21884915  0.63126885  0.41971937     0.36300
C1207       C  0.28699093  0.63647984  0.36447855     0.36100
C1208       C  0.23595214  0.46279804  0.39161090     0.36800
N1209       N  0.20408227  0.74550346  0.31612159    -0.44000
N1210       N  0.22228713  0.61346867  0.43747829    -0.44400
N1211       N  0.22490645  0.42811651  0.39712025    -0.41800
N1212       N  0.29766691  0.67163361  0.35918810    -0.43200
H1213       H  0.31150673  0.55267230  0.36577210     0.13000
H1214       H  0.21173528  0.54681570  0.38978631     0.09400
H1215       H  0.23229808  0.64527221  0.34084434     0.10500
H1216       H  0.19127648  0.71119222  0.41263995     0.16300
C1217       C  0.23708170  0.09367626  0.37742835    -0.01900
C1218       C  0.26626470  0.09001151  0.37385166     0.06700
C1219       C  0.27831174  0.04515952  0.37029910    -0.07800
C1220       C  0.26170691  0.00410218  0.37020232     0.04200
C1221       C  0.23235158  0.00763215  0.37369149    -0.15100
C1222       C  0.22041588  0.05280640  0.37714703    -0.08400
C1223       C  0.28442757  0.13275688  0.37414691     0.05100
C1224       C  0.29775886  0.14569180  0.39471682    -0.09500
C1225       C  0.31223683  0.18876702  0.39659114     0.00100
C1226       C  0.31356231  0.21997919  0.37742921     0.00000
C1227       C  0.30141350  0.20545084  0.35648467    -0.13100
C1228       C  0.28694794  0.16242888  0.35471335     0.00400
C1229       C  0.32355538  0.20130362  0.41885476     0.39700
C1230       C  0.27400905  0.15018163  0.33302733     0.36300
C1231       C  0.22390953  0.13901622  0.38184916     0.36100
C1232       C  0.27526115  0.95915750  0.36566544     0.36800
N1233       N  0.33249212  0.21119734  0.43677040    -0.44000
N1234       N  0.26369189  0.14051590  0.31559516    -0.44400
N1235       N  0.28616212  0.92316927  0.36199480    -0.41800
N1236       N  0.21342307  0.17536415  0.38549104    -0.43200
H1237       H  0.19800232  0.05617164  0.38000462     0.13000
H1238       H  0.30075085  0.04229078  0.36748810     0.09400
H1239       H  0.29579002  0.12282463  0.40974144     0.10500
H1240       H  0.30221486  0.22880462  0.34158342     0.16300
C1241       C  0.84550369  0.13607342  0.71850007    -0.01900
C1242       C  0.82075452  0.12407219  0.73048071     0.06700
C1243       C  0.79647409  0.11331054  0.71785047    -0.07800
C1244       C  0.79681635  0.11253419  0.69369399     0.04200
C1245       C  0.82204401  0.12191157  0.68172416    -0.15100
C1246       C  0.84609780  0.13402726  0.69439288    -0.08400
C1247       C  0.81966763  0.12238543  0.75612544     0.05100
C1248       C  0.80029345  0.15125558  0.76780472    -0.09500
C1249       C  0.79845260  0.15070207  0.79192593     0.00100
C1250       C  0.81653707  0.12095238  0.80494092     0.00000
C1251       C  0.83567362  0.09163429  0.79310187    -0.13100
C1252       C  0.83708023  0.09160539  0.76899197     0.00400
C1253       C  0.77812070  0.18172679  0.80267890     0.39700
C1254       C  0.85585827  0.05842341  0.75783757     0.36300
C1255       C  0.87030806  0.15186913  0.73051705     0.36100
C1256       C  0.77123497  0.10039601  0.68175069     0.36800
N1257       N  0.76171584  0.20647881  0.81123207    -0.44000
N1258       N  0.87091635  0.03193025  0.74885695    -0.44400
N1259       N  0.75074634  0.09090691  0.67211386    -0.41800
N1260       N  0.89016440  0.16456977  0.74015921    -0.43200
H1261       H  0.86538062  0.14256852  0.68540654     0.13000
H1262       H  0.77727395  0.10470203  0.72693572     0.09400
H1263       H  0.78663503  0.17459957  0.75799392     0.10500
H1264       H  0.84926904  0.06780317  0.80268334     0.16300
C1265       C  0.03173816  0.18806413  0.59956859    -0.01900
C1266       C  0.01888223  0.17656491  0.62070241     0.06700
C1267       C  0.03573777  0.16848801  0.64017834    -0.07800
C1268       C  0.06514085  0.17058521  0.63867000     0.04200
C1269       C  0.07804778  0.18121329  0.61736864    -0.15100
C1270       C  0.06098343  0.19093984  0.59814662    -0.08400
C1271       C  0.98809833  0.16887982  0.62208468     0.05100
C1272       C  0.97806979  0.12231040  0.62141367    -0.09500
C1273       C  0.94928574  0.11299525  0.61976061     0.00100
C1274       C  0.92968268  0.15109292  0.61889775     0.00000
C1275       C  0.93991637  0.19780799  0.62042463    -0.13100
C1276       C  0.96879188  0.20686525  0.62201249     0.00400
C1277       C  0.94095519  0.06396569  0.61761837     0.39700
C1278       C  0.97823157  0.25538351  0.62326172     0.36300
C1279       C  0.01543327  0.19391125  0.57875805     0.36100
C1280       C  0.08156153  0.16189561  0.65916490     0.36800
N1281       N  0.93441069  0.02462955  0.61584161    -0.44000
N1282       N  0.98582114  0.29426873  0.62433968    -0.44400
N1283       N  0.09480056  0.15504926  0.67556737    -0.41800
N1284       N  0.00240509  0.19817454  0.56204308    -0.43200
H1285       H  0.07056595  0.19822212  0.58156701     0.13000
H1286       H  0.02590410  0.15950754  0.65644703     0.09400
H1287       H  0.99294955  0.09305425  0.62127613     0.10500
H1288       H  0.92537836  0.22749429  0.61990383     0.16300
C1289       C  0.73338668  0.29173413  0.48220349    -0.01900
C1290       C  0.75702397  0.26145355  0.48109522     0.06700
C1291       C  0.76892277  0.25099956  0.45945783    -0.07800
C1292       C  0.75691362  0.26854210  0.43912886     0.04200
C1293       C  0.73228604  0.29609271  0.44033017    -0.15100
C1294       C  0.72106589  0.30825486  0.46186945    -0.08400
C1295       C  0.76875972  0.23838573  0.50206604     0.05100
C1296       C  0.75104964  0.21150611  0.51638701    -0.09500
C1297       C  0.76141287  0.18902036  0.53622861     0.00100
C1298       C  0.79027332  0.19134528  0.54136712     0.00000
C1299       C  0.80797376  0.21738613  0.52670593    -0.13100
C1300       C  0.79744867  0.24167307  0.50760631     0.00400
C1301       C  0.74210072  0.16341369  0.55070225     0.39700
C1302       C  0.81631000  0.27157192  0.49468532     0.36300
C1303       C  0.72109575  0.30586397  0.50391159     0.36100
C1304       C  0.76895493  0.25504594  0.41723063     0.36800
N1305       N  0.72644907  0.14315324  0.56228454    -0.44000
N1306       N  0.83143891  0.29570819  0.48446266    -0.44400
N1307       N  0.77853265  0.24448138  0.39962361    -0.41800
N1308       N  0.71113106  0.31717236  0.52126424    -0.43200
H1309       H  0.70205185  0.32946378  0.46273965     0.13000
H1310       H  0.78697023  0.22758783  0.45838444     0.09400
H1311       H  0.72900754  0.20820116  0.51208201     0.10500
H1312       H  0.83012540  0.22043874  0.53068479     0.16300
C1313       C  0.73603776  0.41897510  0.62197537    -0.01900
C1314       C  0.76467227  0.42077282  0.61567312     0.06700
C1315       C  0.77565251  0.46435949  0.60825991    -0.07800
C1316       C  0.75904782  0.50570433  0.60767517     0.04200
C1317       C  0.73088483  0.50467692  0.61561411    -0.15100
C1318       C  0.71985477  0.46067010  0.62261323    -0.08400
C1319       C  0.78299713  0.37730127  0.61545566     0.05100
C1320       C  0.79747475  0.36502894  0.59518614    -0.09500
C1321       C  0.81269587  0.32233660  0.59349948     0.00100
C1322       C  0.81295610  0.28996517  0.61219322     0.00000
C1323       C  0.80029382  0.30408741  0.63301184    -0.13100
C1324       C  0.78598569  0.34751683  0.63492330     0.00400
C1325       C  0.82682776  0.31227433  0.57203646     0.39700
C1326       C  0.77465727  0.36065797  0.65711720     0.36300
C1327       C  0.72219423  0.37441529  0.62645312     0.36100
C1328       C  0.77139699  0.54795880  0.59803297     0.36800
N1329       N  0.83843139  0.30493498  0.55487606    -0.44000
N1330       N  0.76557388  0.37103452  0.67492609    -0.44400
N1331       N  0.78119176  0.58162685  0.59000275    -0.41800
N1332       N  0.71105694  0.33870820  0.62990970    -0.43200
H1333       H  0.69810068  0.45831748  0.62793328     0.13000
H1334       H  0.79731510  0.46601608  0.60261544     0.09400
H1335       H  0.79614578  0.38820883  0.58029977     0.10500
H1336       H  0.80093941  0.28048155  0.64777165     0.16300
C1337       C  0.70791826  0.86388145  0.59308546    -0.01900
C1338       C  0.72068215  0.88084767  0.61338828     0.06700
C1339       C  0.71741909  0.85506920  0.63390844    -0.07800
C1340       C  0.70331759  0.81141540  0.63409494     0.04200
C1341       C  0.69293847  0.79201344  0.61329410    -0.15100
C1342       C  0.69440140  0.81971604  0.59312205    -0.08400
C1343       C  0.73897012  0.92366077  0.61321700     0.05100
C1344       C  0.72698018  0.96900552  0.61107727    -0.09500
C1345       C  0.74381350  0.00987735  0.61070765     0.00100
C1346       C  0.77341639  0.00571700  0.61206787     0.00000
C1347       C  0.78518096  0.96013259  0.61461572    -0.13100
C1348       C  0.76836800  0.91947745  0.61510498     0.00400
C1349       C  0.72996197  0.05549453  0.61036985     0.39700
C1350       C  0.78184387  0.87368554  0.61721784     0.36300
C1351       C  0.70954185  0.89024733  0.57179590     0.36100
C1352       C  0.69947781  0.78752039  0.65586946     0.36800
N1353       N  0.71875743  0.09200064  0.61041699    -0.44000
N1354       N  0.79271388  0.83706027  0.61893151    -0.44400
N1355       N  0.69602120  0.76843210  0.67329296    -0.41800
N1356       N  0.71069470  0.91168156  0.55481275    -0.43200
H1357       H  0.68634664  0.80578838  0.57700579     0.13000
H1358       H  0.72640527  0.86871487  0.64974636     0.09400
H1359       H  0.70435011  0.97247401  0.61002820     0.10500
H1360       H  0.80770478  0.95607750  0.61621719     0.16300
C1361       C  0.83442134  0.89326637  0.27045810    -0.01900
C1362       C  0.81464576  0.86486747  0.25888597     0.06700
C1363       C  0.79598106  0.83721081  0.27170756    -0.07800
C1364       C  0.79697433  0.83685702  0.29579544     0.04200
C1365       C  0.81763986  0.86377300  0.30752723    -0.15100
C1366       C  0.83599265  0.89211625  0.29452905    -0.08400
C1367       C  0.81370623  0.86234569  0.23339180     0.05100
C1368       C  0.83720555  0.84467262  0.22159887    -0.09500
C1369       C  0.83750295  0.84240207  0.19753827     0.00100
C1370       C  0.81387121  0.85797637  0.18490141     0.00000
C1371       C  0.78997275  0.87399535  0.19671825    -0.13100
C1372       C  0.78977079  0.87653089  0.22080969     0.00400
C1373       C  0.86193749  0.82260360  0.18628276     0.39700
C1374       C  0.76523325  0.89547526  0.23219387     0.36300
C1375       C  0.85273006  0.92489041  0.25799768     0.36100
C1376       C  0.77666246  0.80797057  0.30773133     0.36800
N1377       N  0.88144776  0.80656491  0.17726249    -0.44000
N1378       N  0.74559181  0.91065650  0.24135979    -0.44400
N1379       N  0.76018462  0.78511395  0.31721805    -0.41800
N1380       N  0.86722415  0.95043614  0.24796601    -0.43200
H1381       H  0.85145891  0.91391763  0.30316915     0.13000
H1382       H  0.78070096  0.81545113  0.26280152     0.09400
H1383       H  0.85536796  0.83261236  0.23127076     0.10500
H1384       H  0.77177759  0.88603383  0.18708549     0.16300
C1385       C  0.97464340  0.80642191  0.38149107    -0.01900
C1386       C  0.98791959  0.83780945  0.36601075     0.06700
C1387       C  0.97117899  0.86446206  0.35079271    -0.07800
C1388       C  0.94174863  0.86217628  0.35167283     0.04200
C1389       C  0.92840567  0.83218454  0.36783847    -0.15100
C1390       C  0.94523029  0.80349695  0.38211832    -0.08400
C1391       C  0.01894716  0.84588818  0.36673654     0.05100
C1392       C  0.03763649  0.80860954  0.36152481    -0.09500
C1393       C  0.06686861  0.81454529  0.36350565     0.00100
C1394       C  0.07789774  0.85830899  0.37112052     0.00000
C1395       C  0.05916180  0.89593680  0.37553110    -0.13100
C1396       C  0.03008684  0.89017645  0.37339245     0.00400
C1397       C  0.08508625  0.77600696  0.35668673     0.39700
C1398       C  0.01207569  0.92990563  0.37895137     0.36300
C1399       C  0.99068802  0.77947779  0.39808986     0.36100
C1400       C  0.92574278  0.89135788  0.33594065     0.36800
N1401       N  0.09974302  0.74534862  0.35097031    -0.44000
N1402       N  0.99767967  0.96183194  0.38332244    -0.44400
N1403       N  0.91289539  0.91473713  0.32334604    -0.41800
N1404       N  0.00360248  0.75809540  0.41144428    -0.43200
H1405       H  0.93537972  0.78091500  0.39487725     0.13000
H1406       H  0.98116217  0.88829529  0.33865897     0.09400
H1407       H  0.02932908  0.77474780  0.35591145     0.10500
H1408       H  0.06721647  0.92985131  0.38134790     0.16300
C1409       C  0.85931537  0.98909554  0.46751067    -0.01900
C1410       C  0.87806895  0.97123760  0.48419792     0.06700
C1411       C  0.89387869  0.93049100  0.47930297    -0.07800
C1412       C  0.89100529  0.90697743  0.45814785     0.04200
C1413       C  0.87192532  0.92453695  0.44136873    -0.15100
C1414       C  0.85665109  0.96613776  0.44627076    -0.08400
C1415       C  0.87996219  0.99317787  0.50734510     0.05100
C1416       C  0.86810232  0.96948635  0.52613856    -0.09500
C1417       C  0.86549642  0.99184888  0.54760605     0.00100
C1418       C  0.87457513  0.03943284  0.55039387     0.00000
C1419       C  0.88845355  0.06145913  0.53183343    -0.13100
C1420       C  0.89130976  0.03868711  0.51052765     0.00400
C1421       C  0.85287229  0.96498412  0.56602315     0.39700
C1422       C  0.90555680  0.06289595  0.49201975     0.36300
C1423       C  0.84134219  0.02929580  0.47233467     0.36100
C1424       C  0.90772114  0.86478304  0.45443165     0.36800
N1425       N  0.84293083  0.94268243  0.58060363    -0.44000
N1426       N  0.91708407  0.08213027  0.47719111    -0.44400
N1427       N  0.92102833  0.83085623  0.45151986    -0.41800
N1428       N  0.82683360  0.06130921  0.47628093    -0.43200
H1429       H  0.84159009  0.97976028  0.43388966     0.13000
H1430       H  0.90818523  0.91664571  0.49221942     0.09400
H1431       H  0.85988464  0.93396804  0.52376831     0.10500
H1432       H  0.89634737  0.09729127  0.53363063     0.16300
C1433       C  0.73111468  0.67607840  0.50474087    -0.01900
C1434       C  0.75098601  0.71295191  0.50572010     0.06700
C1435       C  0.75837167  0.73212992  0.52719618    -0.07800
C1436       C  0.74600471  0.71583251  0.54753442     0.04200
C1437       C  0.72550587  0.67981714  0.54655211    -0.15100
C1438       C  0.71851622  0.65998926  0.52506010    -0.08400
C1439       C  0.76404178  0.73290577  0.48463935     0.05100
C1440       C  0.74700269  0.75419791  0.46777244    -0.09500
C1441       C  0.75877234  0.77495617  0.44807892     0.00100
C1442       C  0.78825697  0.77521652  0.44525042     0.00000
C1443       C  0.80515311  0.75402913  0.46229347    -0.13100
C1444       C  0.79336569  0.73274579  0.48169837     0.00400
C1445       C  0.74009969  0.79636230  0.43141784     0.39700
C1446       C  0.81179031  0.70968714  0.49802983     0.36300
C1447       C  0.72336555  0.65417216  0.48315322     0.36100
C1448       C  0.75347184  0.73895989  0.56888413     0.36800
N1449       N  0.72509312  0.81339631  0.41806052    -0.44000
N1450       N  0.82652294  0.69118233  0.51112474    -0.44400
N1451       N  0.75944303  0.75750540  0.58598746    -0.41800
N1452       N  0.71711169  0.63662880  0.46586568    -0.43200
H1453       H  0.70277442  0.63236269  0.52409231     0.13000
H1454       H  0.77342259  0.76085231  0.52799581     0.09400
H1455       H  0.72442985  0.75494662  0.47012224     0.10500
H1456       H  0.82776333  0.75292742  0.46022664     0.16300
C1457       C  0.69418864  0.10149225  0.39229933    -0.01900
C1458       C  0.71578948  0.08788918  0.37699466     0.06700
C1459       C  0.72297048  0.11841121  0.35887898    -0.07800
C1460       C  0.71123986  0.16382948  0.35724912     0.04200
C1461       C  0.69130668  0.17924024  0.37372681    -0.15100
C1462       C  0.68193557  0.14683249  0.39043492    -0.08400
C1463       C  0.73351553  0.04490166  0.38077794     0.05100
C1464       C  0.72229594  0.99941836  0.37750822    -0.09500
C1465       C  0.73960053  0.95888279  0.37840231     0.00100
C1466       C  0.76869271  0.96367577  0.38272723     0.00000
C1467       C  0.77953180  0.00911834  0.38686994    -0.13100
C1468       C  0.76231947  0.04938136  0.38599890     0.00400
C1469       C  0.72734404  0.91341351  0.37311649     0.39700
C1470       C  0.77483638  0.09516588  0.39020134     0.36300
C1471       C  0.68595674  0.07120832  0.41114656     0.36100
C1472       C  0.72137021  0.19485299  0.33928809     0.36800
N1473       N  0.71753550  0.87700924  0.36874459    -0.44000
N1474       N  0.78488294  0.13185100  0.39349225    -0.44400
N1475       N  0.72971691  0.21967884  0.32498403    -0.41800
N1476       N  0.67935857  0.04696925  0.42628353    -0.43200
H1477       H  0.66685280  0.15831241  0.40329662     0.13000
H1478       H  0.73918255  0.10774866  0.34679123     0.09400
H1479       H  0.70023639  0.99576405  0.37333716     0.10500
H1480       H  0.80173152  0.01332123  0.39041113     0.16300
C1481       C  0.78221880  0.62713089  0.35312482    -0.01900
C1482       C  0.78506496  0.59489102  0.37155672     0.06700
C1483       C  0.80407960  0.60505768  0.38927563    -0.07800
C1484       C  0.81844117  0.64843208  0.38988662     0.04200
C1485       C  0.81394198  0.68274904  0.37229800    -0.15100
C1486       C  0.79656279  0.67047369  0.35359606    -0.08400
C1487       C  0.76681948  0.55228138  0.37351216     0.05100
C1488       C  0.77848707  0.50693326  0.37084797    -0.09500
C1489       C  0.76165997  0.46619962  0.37193497     0.00100
C1490       C  0.73224647  0.47046192  0.37557143     0.00000
C1491       C  0.72094596  0.51612639  0.37907784    -0.13100
C1492       C  0.73791188  0.55662841  0.37828147     0.00400
C1493       C  0.77546411  0.42073535  0.36958185     0.39700
C1494       C  0.72533732  0.60239381  0.38284639     0.36300
C1495       C  0.76392968  0.61702307  0.33391223     0.36100
C1496       C  0.83582266  0.65774177  0.40977075     0.36800
N1497       N  0.78659228  0.38434063  0.36776684    -0.44000
N1498       N  0.71543363  0.63915257  0.38660436    -0.44400
N1499       N  0.84965208  0.66521290  0.42575939    -0.41800
N1500       N  0.74924131  0.60874880  0.31855462    -0.43200
H1501       H  0.79300356  0.69577806  0.33981534     0.13000
H1502       H  0.80655214  0.58005983  0.40334999     0.09400
H1503       H  0.80083759  0.50339597  0.36773513     0.10500
H1504       H  0.69868701  0.52044411  0.38222858     0.16300
loop_ 
_geom_bond_atom_site_label_1 
_geom_bond_atom_site_label_2 
_geom_bond_distance 
_geom_bond_site_symmetry_2 
_ccdc_geom_bond_type 
O1           C16   1.260       .  A
O1           Al9   1.895       .  S
C2           O12   1.264       .  A
C2            O3   1.264       .  A
C2         C1413   1.486       .  S
O3           Al5   1.918       .  S
O4            C6   1.259       .  A
O4           Al5   1.880       .  S
Al5          O13   1.911       .  S
Al5          O15   1.919       .  S
Al5          O14   1.784       .  S
C6           O19   1.263       .  A
C6         C1442   1.483       .  S
O7           C17   1.259       .  A
O7           Al9   1.904       .  S
O8           C21   1.266       .  A
O8          Al18   1.894       .  S
Al9          O22   1.915       .  S
Al9          O19   1.917       .  S
Al9          O14   1.785       .  S
O10          C17   1.261       .  A
O10         Al18   1.913       .  S
O11          C20   1.263       .  A
O11         Al18   1.921       .  S
O12         Al18   1.894       .  S
O13          C20   1.263       .  A
O14         Al18   1.782       .  S
O15          C16   1.263       .  A
C16        C1485   1.495       .  S
C17        C1466   1.486       .  S
C20        C1389   1.491       .  S
C21          O22   1.266       .  A
C21        C1365   1.485       .  S
O23          C38   1.260       .  A
O23         Al31   1.890       .  S
C24          O34   1.263       .  A
C24          O25   1.270       .  A
C24        C1418   1.492       .  S
O25         Al27   1.934       .  S
O26          C28   1.256       .  A
O26         Al27   1.868       .  S
Al27         O35   1.903       .  S
Al27         O37   1.938       .  S
Al27         O36   1.777       .  S
C28          O41   1.267       .  A
C28        C1298   1.480       .  S
O29          C39   1.262       .  A
O29         Al31   1.909       .  S
O30          C43   1.265       .  A
O30         Al40   1.891       .  S
Al31         O44   1.932       .  S
Al31         O41   1.939       .  S
Al31         O36   1.779       .  S
O32          C39   1.263       .  A
O32         Al40   1.924       .  S
O33          C42   1.263       .  A
O33         Al40   1.925       .  S
O34         Al40   1.894       .  S
O35          C42   1.262       .  A
O36         Al40   1.778       .  S
O37          C38   1.266       .  A
C38        C1322   1.494       .  S
C39        C1346   1.495       .  S
C42        C1274   1.494       .  S
C43          O44   1.270       .  A
C43        C1245   1.483       .  S
O45          C60   1.265       .  A
O45         Al53   1.916       .  S
C46          O56   1.266       .  A
C46          O47   1.261       .  A
C46        C1173   1.483       .  S
O47         Al49   1.887       .  S
O48          C50   1.262       .  A
O48         Al49   1.922       .  S
Al49         O57   1.923       .  S
Al49         O59   1.889       .  S
Al49         O58   1.782       .  S
C50          O63   1.259       .  A
C50        C1221   1.489   1_565  S
O51          C61   1.264       .  A
O51         Al53   1.916       .  S
O52          C65   1.265       .  A
O52         Al62   1.932       .  S
Al53         O66   1.897       .  S
Al53         O63   1.900       .  S
Al53         O58   1.780       .  S
O54          C61   1.262       .  A
O54         Al62   1.895       .  S
O55          C64   1.265       .  A
O55         Al62   1.920       .  S
O56         Al62   1.930       .  S
O57          C64   1.264       .  A
O58         Al62   1.782       .  S
O59          C60   1.263       .  A
C60        C1125   1.488       .  S
C61        C1149   1.479       .  S
C64        C1394   1.492       .  S
C65          O66   1.260       .  A
C65        C1202   1.494       .  S
O67          C82   1.268       .  A
O67         Al75   1.913       .  S
C68          O78   1.260       .  A
C68          O69   1.262       .  A
C68        C1178   1.477       .  S
O69         Al71   1.908       .  S
O70          C72   1.254       .  A
O70         Al71   1.897       .  S
Al71         O79   1.900       .  S
Al71         O81   1.908       .  S
Al71         O80   1.793       .  S
C72          O85   1.256       .  A
C72        C1058   1.499       .  S
O73          C83   1.269       .  A
O73         Al75   1.934       .  S
O74          C87   1.263       .  A
O74         Al84   1.918       .  S
Al75         O88   1.896       .  S
Al75         O85   1.909       .  S
Al75         O80   1.798       .  S
O76          C83   1.260       .  A
O76         Al84   1.882       .  S
O77          C86   1.255       .  A
O77         Al84   1.892       .  S
O78         Al84   1.887       .  S
O79          C86   1.256       .  A
O80         Al84   1.797       .  S
O81          C82   1.266       .  A
C82        C1034   1.492       .  S
C83        C1101   1.488       .  S
C86        C1269   1.485       .  S
C87          O88   1.258       .  A
C87        C1077   1.484       .  S
O89         C104   1.260       .  A
O89         Al97   1.887       .  S
C90         O100   1.264       .  A
C90          O91   1.268       .  A
C90        C1005   1.486       .  S
O91         Al93   1.929       .  S
O92          C94   1.258       .  A
O92         Al93   1.893       .  S
Al93        O101   1.914       .  S
Al93        O103   1.934       .  S
Al93        O102   1.779       .  S
C94         O107   1.265       .  A
C94        C1106   1.476       .  S
O95         C105   1.260       .  A
O95         Al97   1.907       .  S
O96         C109   1.265       .  A
O96        Al106   1.897       .  S
Al97        O110   1.932       .  S
Al97        O107   1.925       .  S
Al97        O102   1.774       .  S
O98         C105   1.264       .  A
O98        Al106   1.928       .  S
O99         C108   1.263       .  A
O99        Al106   1.922       .  S
O100       Al106   1.892       .  S
O101        C108   1.263       .  A
O102       Al106   1.778       .  S
O103        C104   1.266       .  A
C104       C1226   1.490       .  S
C105       C1197   1.500       .  S
C108        C981   1.490       .  S
C109        O110   1.270       .  A
C109        C957   1.491       .  S
O111        C126   1.259       .  A
O111       Al119   1.893       .  S
C112        O122   1.263       .  A
C112        O113   1.267       .  A
C112       C1010   1.475       .  S
O113       Al115   1.935       .  S
O114        C116   1.257       .  A
O114       Al115   1.868       .  S
Al115       O123   1.901       .  S
Al115       O125   1.924       .  S
Al115       O124   1.783       .  S
C116        O129   1.268       .  A
C116       C1154   1.490       .  S
O117        C127   1.261       .  A
O117       Al119   1.913       .  S
O118        C131   1.264       .  A
O118       Al128   1.888       .  S
Al119       O132   1.937       .  S
Al119       O129   1.939       .  S
Al119       O124   1.779       .  S
O120        C127   1.259       .  A
O120       Al128   1.913       .  S
O121        C130   1.262       .  A
O121       Al128   1.917       .  S
O122       Al128   1.890       .  S
O123        C130   1.260       .  A
O124       Al128   1.777       .  S
O125        C126   1.264       .  A
C126       C1053   1.493       .  S
C127       C1082   1.491       .  S
C130        C933   1.481       .  S
C131        O132   1.271       .  A
C131        C909   1.475       .  S
O133        C148   1.262       .  A
O133       Al141   1.885       .  S
C134        O144   1.258       .  A
C134        O135   1.261       .  A
C134        C885   1.484       .  S
O135       Al137   1.911       .  S
O136        C138   1.259       .  A
O136       Al137   1.910       .  S
Al137       O145   1.909       .  S
Al137       O147   1.921       .  S
Al137       O146   1.791       .  S
C138        O151   1.256       .  A
C138       C1490   1.498       .  S
O139        C149   1.264       .  A
O139       Al141   1.902       .  S
O140        C153   1.262       .  A
O140       Al150   1.918       .  S
Al141       O154   1.891       .  S
Al141       O151   1.909       .  S
Al141       O146   1.789       .  S
O142        C149   1.263       .  A
O142       Al150   1.899       .  S
O143        C152   1.259       .  A
O143       Al150   1.900       .  S
O144       Al150   1.880       .  S
O145        C152   1.261       .  A
O146       Al150   1.788       .  S
O147        C148   1.267       .  A
C148        C861   1.468       .  S
C149       C1293   1.465       .  S
C152        C986   1.496       .  S
C153        O154   1.256       .  A
C153       C1461   1.483       .  S
O155        C170   1.270       .  A
O155       Al163   1.937       .  S
C156        O166   1.267       .  A
C156        O157   1.261       .  A
C156        C890   1.486       .  S
O157       Al159   1.889       .  S
O158        C160   1.263       .  A
O158       Al159   1.925       .  S
Al159       O167   1.920       .  S
Al159       O169   1.885       .  S
Al159       O168   1.779       .  S
C160        O173   1.259       .  A
C160       C1317   1.502       .  S
O161        C171   1.268       .  A
O161       Al163   1.929       .  S
O162        C175   1.263       .  A
O162       Al172   1.926       .  S
Al163       O176   1.898       .  S
Al163       O173   1.903       .  S
Al163       O168   1.775       .  S
O164        C171   1.259       .  A
O164       Al172   1.877       .  S
O165        C174   1.262       .  A
O165       Al172   1.901       .  S
O166       Al172   1.929       .  S
O167        C174   1.265       .  A
O168       Al172   1.781       .  S
O169        C170   1.261       .  A
C170        C837   1.485       .  S
C171       C1437   1.478       .  S
C174        C938   1.482       .  S
C175        O176   1.260       .  A
C175       C1341   1.492       .  S
O177        C192   1.271       .  A
O177       Al185   1.934       .  S
C178        O188   1.269       .  A
C178        O179   1.265       .  A
C178        C746   1.487       .  S
O179       Al181   1.889       .  S
O180        C182   1.258       .  A
O180       Al181   1.915       .  S
Al181       O189   1.913       .  S
Al181       O191   1.879       .  S
Al181       O190   1.778       .  S
C182        O195   1.259       .  A
C182        C794   1.498       .  S
O183        C193   1.265       .  A
O183       Al185   1.923       .  S
O184        C197   1.263       .  A
O184       Al194   1.918       .  S
Al185       O198   1.898       .  S
Al185       O195   1.920       .  S
Al185       O190   1.784       .  S
O186        C193   1.257       .  A
O186       Al194   1.865       .  S
O187        C196   1.262       .  A
O187       Al194   1.920       .  S
O188       Al194   1.933       .  S
O189        C196   1.260       .  A
O190       Al194   1.785       .  S
O191        C192   1.264       .  A
C192       C1370   1.472       .  S
C193        C765   1.479       .  S
C196        C722   1.498       .  S
C197        O198   1.260       .  A
C197        C813   1.493       .  S
O199        C214   1.268       .  A
O199       Al207   1.928       .  S
C200        O210   1.265       .  A
C200        O201   1.262       .  A
C200        C741   1.484       .  S
O201       Al203   1.900       .  S
O202        C204   1.262       .  A
O202       Al203   1.914       .  S
Al203       O211   1.927       .  S
Al203       O213   1.893       .  S
Al203       O212   1.780       .  S
C204        O217   1.261       .  A
C204        C698   1.498       .  S
O205        C215   1.265       .  A
O205       Al207   1.924       .  S
O206        C219   1.262       .  A
O206       Al216   1.918       .  S
Al207       O220   1.908       .  S
Al207       O217   1.912       .  S
Al207       O212   1.780       .  S
O208        C215   1.260       .  A
O208       Al216   1.888       .  S
O209        C218   1.263       .  A
O209       Al216   1.908       .  S
O210       Al216   1.925       .  S
O211        C218   1.265       .  A
O212       Al216   1.780       .  S
O213        C214   1.265       .  A
C214       C1250   1.490       .  S
C215        C645   1.471       .  S
C218        C621   1.487       .  S
C219        O220   1.263       .  A
C219        C669   1.499       .  S
O221        C236   1.260       .  A
O221       Al229   1.894       .  S
C222        O232   1.262       .  A
C222        O223   1.267       .  A
C222        C554   1.489       .  S
O223       Al225   1.933       .  S
O224        C226   1.255       .  A
O224       Al225   1.865       .  S
Al225       O233   1.894       .  S
Al225       O235   1.931       .  S
Al225       O234   1.776       .  S
C226        O239   1.268       .  A
C226        C530   1.474       .  S
O227        C237   1.262       .  A
O227       Al229   1.907       .  S
O228        C241   1.261       .  A
O228       Al238   1.886       .  S
Al229       O242   1.931       .  S
Al229       O239   1.944       .  S
Al229       O234   1.780       .  S
O230        C237   1.267       .  A
O230       Al238   1.936       .  S
O231        C240   1.269       .  A
O231       Al238   1.944       .  S
O232       Al238   1.894       .  S
O233        C240   1.260       .  A
O234       Al238   1.773       .  S
O235        C236   1.265       .  A
C236        C573   1.483       .  S
C237        C597   1.497       .  S
C240        C717   1.492       .  S
C241        O242   1.268       .  A
C241       C1130   1.469       .  S
O243        C258   1.258       .  A
O243       Al251   1.884       .  S
C244        O254   1.266       .  A
C244        O245   1.268       .  A
C244        C549   1.501       .  S
O245       Al247   1.930       .  S
O246        C248   1.257       .  A
O246       Al247   1.878       .  S
Al247       O255   1.906       .  S
Al247       O257   1.935       .  S
Al247       O256   1.780       .  S
C248        O261   1.265       .  A
C248        C501   1.470       .  S
O249        C259   1.260       .  A
O249       Al251   1.906       .  S
O250        C263   1.267       .  A
O250       Al260   1.912       .  S
Al251       O264   1.924       .  S
Al251       O261   1.928       .  S
Al251       O256   1.780       .  S
O252        C259   1.265       .  A
O252       Al260   1.925       .  S
O253        C262   1.266       .  A
O253       Al260   1.929       .  S
O254       Al260   1.913       .  S
O255        C262   1.262       .  A
O256       Al260   1.776       .  S
O257        C258   1.267       .  A
C258        C477   1.491       .  S
C259        C453   1.496       .  S
C262        C626   1.493       .  S
C263        O264   1.268       .  A
C263       C1029   1.495       .  S
O265        C280   1.266       .  A
O265       Al273   1.907       .  S
C266        O276   1.260       .  A
C266        O267   1.265       .  A
C266        C429   1.491       .  S
O267       Al269   1.928       .  S
O268        C270   1.253       .  A
O268       Al269   1.886       .  S
Al269       O277   1.898       .  S
Al269       O279   1.917       .  S
Al269       O278   1.790       .  S
C270        O283   1.257       .  A
C270        C578   1.492       .  S
O271        C281   1.266       .  A
O271       Al273   1.924       .  S
O272        C285   1.267       .  A
O272       Al282   1.925       .  S
Al273       O286   1.902       .  S
Al273       O283   1.912       .  S
Al273       O278   1.789       .  S
O274        C281   1.259       .  A
O274       Al282   1.886       .  S
O275        C284   1.259       .  A
O275       Al282   1.903       .  S
O276       Al282   1.890       .  S
O277        C284   1.256       .  A
O278       Al282   1.789       .  S
O279        C280   1.267       .  A
C280        C962   1.489       .  S
C281        C506   1.482       .  S
C284        C405   1.491       .  S
C285        O286   1.261       .  A
C285        C602   1.486       .  S
O287        C302   1.264       .  A
O287       Al295   1.894       .  S
C288        O298   1.259       .  A
C288        O289   1.267       .  A
C288        C434   1.500       .  S
O289       Al291   1.929       .  S
O290        C292   1.256       .  A
O290       Al291   1.902       .  S
Al291       O299   1.915       .  S
Al291       O301   1.924       .  S
Al291       O300   1.793       .  S
C292        O305   1.258       .  A
C292        C482   1.493       .  S
O293        C303   1.265       .  A
O293       Al295   1.924       .  S
O294        C307   1.266       .  A
O294       Al304   1.917       .  S
Al295       O308   1.908       .  S
Al295       O305   1.909       .  S
Al295       O300   1.794       .  S
O296        C303   1.257       .  A
O296       Al304   1.873       .  S
O297        C306   1.256       .  A
O297       Al304   1.895       .  S
O298       Al304   1.888       .  S
O299        C306   1.260       .  A
O300       Al304   1.790       .  S
O301        C302   1.268       .  A
C302        C914   1.487       .  S
C303        C525   1.473       .  S
C306        C381   1.499       .  S
C307        O308   1.262       .  A
C307        C458   1.485       .  S
O309        C324   1.257       .  A
O309       Al317   1.889       .  S
C310        O320   1.266       .  A
C310        O311   1.271       .  A
C310        C362   1.488       .  S
O311       Al313   1.936       .  S
O312        C314   1.255       .  A
O312       Al313   1.869       .  S
Al313       O321   1.922       .  S
Al313       O323   1.933       .  S
Al313       O322   1.783       .  S
C314        O327   1.268       .  A
C314        C650   1.492       .  S
O315        C325   1.258       .  A
O315       Al317   1.916       .  S
O316        C329   1.267       .  A
O316       Al326   1.882       .  S
Al317       O330   1.933       .  S
Al317       O327   1.929       .  S
Al317       O322   1.779       .  S
O318        C325   1.255       .  A
O318       Al326   1.903       .  S
O319        C328   1.257       .  A
O319       Al326   1.903       .  S
O320       Al326   1.892       .  S
O321        C328   1.264       .  A
O322       Al326   1.782       .  S
O323        C324   1.265       .  A
C324        C789   1.496       .  S
C325        C818   1.495       .  S
C328        C410   1.497       .  S
C329        O330   1.272       .  A
C329        C866   1.488       .  S
O331        C346   1.261       .  A
O331       Al339   1.901       .  S
C332        O342   1.261       .  A
C332        O333   1.265       .  A
C332        C357   1.482       .  S
O333       Al335   1.925       .  S
O334        C336   1.259       .  A
O334       Al335   1.882       .  S
Al335       O343   1.906       .  S
Al335       O345   1.924       .  S
Al335       O344   1.784       .  S
C336        O349   1.265       .  A
C336        C770   1.477       .  S
O337        C347   1.260       .  A
O337       Al339   1.911       .  S
O338        C351   1.264       .  A
O338       Al348   1.894       .  S
Al339       O352   1.924       .  S
Al339       O349   1.921       .  S
Al339       O344   1.782       .  S
O340        C347   1.262       .  A
O340       Al348   1.920       .  S
O341        C350   1.267       .  A
O341       Al348   1.930       .  S
O342       Al348   1.892       .  S
O343        C350   1.263       .  A
O344       Al348   1.781       .  S
O345        C346   1.263       .  A
C346        C693   1.492       .  S
C347        C674   1.494       .  S
C350        C386   1.499       .  S
C351        O352   1.267       .  A
C351        C842   1.485       .  S
C353        C354   1.408       .  A
C353        C358   1.398       .  A
C353        C367   1.445       .  S
C354        C359   1.479   1_556  S
C354        C355   1.400       .  A
C355        C356   1.401       .  A
C355        H374   1.085       .  S
C356        C357   1.415       .  A
C356        C368   1.444       .  S
C357        C358   1.406       .  A
C358        H373   1.084       .  S
C359        C360   1.398       .  A
C359        C364   1.406       .  A
C360        C361   1.399       .  A
C360        H375   1.085       .  S
C361        C362   1.419       .  A
C361        C365   1.443       .  S
C362        C363   1.409       .  A
C363        C364   1.401       .  A
C363        H376   1.084       .  S
C364        C366   1.443   1_554  S
C365        N369   1.157       .  T
C366        N370   1.157       .  T
C367        N372   1.157       .  T
C368        N371   1.157       .  T
C377        C378   1.413       .  A
C377        C382   1.407       .  A
C377        C391   1.443       .  S
C378        C383   1.497       .  S
C378        C379   1.401       .  A
C379        C380   1.402       .  A
C379        H398   1.085       .  S
C380        C381   1.422       .  A
C380        C392   1.445       .  S
C381        C382   1.409       .  A
C382        H397   1.084       .  S
C383        C384   1.405       .  A
C383        C388   1.412       .  A
C384        C385   1.407       .  A
C384        H399   1.085       .  S
C385        C386   1.419       .  A
C385        C389   1.444       .  S
C386        C387   1.409       .  A
C387        C388   1.402       .  A
C387        H400   1.085       .  S
C388        C390   1.444       .  S
C389        N393   1.157       .  T
C390        N394   1.157       .  T
C391        N396   1.157       .  T
C392        N395   1.157       .  T
C401        C402   1.410       .  A
C401        C406   1.397       .  A
C401        C415   1.445       .  S
C402        C407   1.490       .  S
C402        C403   1.405       .  A
C403        C404   1.407       .  A
C403        H422   1.085       .  S
C404        C405   1.418       .  A
C404        C416   1.445       .  S
C405        C406   1.406       .  A
C406        H421   1.085       .  S
C407        C408   1.398       .  A
C407        C412   1.411       .  A
C408        C409   1.400       .  A
C408        H423   1.085       .  S
C409        C410   1.425       .  A
C409        C413   1.445       .  S
C410        C411   1.407       .  A
C411        C412   1.405       .  A
C411        H424   1.084       .  S
C412        C414   1.443       .  S
C413        N417   1.158       .  T
C414        N418   1.157       .  T
C415        N420   1.157       .  T
C416        N419   1.158       .  T
C425        C426   1.410       .  A
C425        C430   1.401       .  A
C425        C439   1.444   1_554  S
C426        C431   1.494   1_554  S
C426        C427   1.405       .  A
C427        C428   1.407       .  A
C427        H446   1.085       .  S
C428        C429   1.415       .  A
C428        C440   1.443       .  S
C429        C430   1.408       .  A
C430        H445   1.085       .  S
C431        C432   1.401       .  A
C431        C436   1.411       .  A
C432        C433   1.404       .  A
C432        H447   1.085   1_556  S
C433        C434   1.423       .  A
C433        C437   1.445       .  S
C434        C435   1.409       .  A
C435        C436   1.404       .  A
C435        H448   1.084       .  S
C436        C438   1.444       .  S
C437        N441   1.158       .  T
C438        N442   1.157       .  T
C439        N444   1.157       .  T
C440        N443   1.157       .  T
C449        C450   1.412       .  A
C449        C454   1.400       .  A
C449        C463   1.445       .  S
C450        C455   1.497       .  S
C450        C451   1.405       .  A
C451        C452   1.409   1_565  A
C451        H470   1.084       .  S
C452        C453   1.419       .  A
C452        C464   1.443       .  S
C453        C454   1.406   1_545  A
C454        H469   1.083       .  S
C455        C456   1.404       .  A
C455        C460   1.413       .  A
C456        C457   1.401       .  A
C456        H471   1.085       .  S
C457        C458   1.413       .  A
C457        C461   1.443       .  S
C458        C459   1.407       .  A
C459        C460   1.408       .  A
C459        H472   1.085       .  S
C460        C462   1.443       .  S
C461        N465   1.157       .  T
C462        N466   1.157       .  T
C463        N468   1.157       .  T
C464        N467   1.157       .  T
C473        C474   1.410       .  A
C473        C478   1.402       .  A
C473        C487   1.444       .  S
C474        C479   1.490       .  S
C474        C475   1.403       .  A
C475        C476   1.403       .  A
C475        H494   1.085       .  S
C476        C477   1.419       .  A
C476        C488   1.445       .  S
C477        C478   1.408       .  A
C478        H493   1.085       .  S
C479        C480   1.403       .  A
C479        C484   1.409       .  A
C480        C481   1.404       .  A
C480        H495   1.085       .  S
C481        C482   1.417       .  A
C481        C485   1.442       .  S
C482        C483   1.409       .  A
C483        C484   1.403       .  A
C483        H496   1.085       .  S
C484        C486   1.443       .  S
C485        N489   1.157       .  T
C486        N490   1.157       .  T
C487        N492   1.157       .  T
C488        N491   1.158       .  T
C497        C498   1.413       .  A
C497        C502   1.399       .  A
C497        C511   1.443       .  S
C498        C503   1.484   1_556  S
C498        C499   1.404       .  A
C499        C500   1.399       .  A
C499        H518   1.085   1_556  S
C500        C501   1.409       .  A
C500        C512   1.444       .  S
C501        C502   1.403       .  A
C502        H517   1.086       .  S
C503        C504   1.407       .  A
C503        C508   1.408       .  A
C504        C505   1.405       .  A
C504        H519   1.085       .  S
C505        C506   1.411       .  A
C505        C509   1.443       .  S
C506        C507   1.408       .  A
C507        C508   1.394       .  A
C507        H520   1.085       .  S
C508        C510   1.445   1_554  S
C509        N513   1.157       .  T
C510        N514   1.157       .  T
C511        N516   1.157       .  T
C512        N515   1.157       .  T
C521        C522   1.408       .  A
C521        C526   1.389       .  A
C521        C535   1.446       .  S
C522        C527   1.482       .  S
C522        C523   1.408       .  A
C523        C524   1.406       .  A
C523        H542   1.084       .  S
C524        C525   1.409       .  A
C524        C536   1.443       .  S
C525        C526   1.405       .  A
C526        H541   1.086       .  S
C527        C528   1.401       .  A
C527        C532   1.411   1_556  A
C528        C529   1.394   1_556  A
C528        H543   1.085       .  S
C529        C530   1.413       .  A
C529        C533   1.443       .  S
C530        C531   1.405       .  A
C531        C532   1.402       .  A
C531        H544   1.085       .  S
C532        C534   1.444       .  S
C533        N537   1.156       .  T
C534        N538   1.157       .  T
C535        N540   1.157       .  T
C536        N539   1.157       .  T
C545        C546   1.407       .  A
C545        C550   1.403       .  A
C545        C559   1.444   1_556  S
C546        C551   1.490   1_556  S
C546        C547   1.401       .  A
C547        C548   1.405       .  A
C547        H566   1.085   1_545  S
C548        C549   1.420       .  A
C548        C560   1.442   1_545  S
C549        C550   1.412       .  A
C550        H565   1.084       .  S
C551        C552   1.403   1_545  A
C551        C556   1.411       .  A
C552        C553   1.404       .  A
C552        H567   1.085       .  S
C553        C554   1.416       .  A
C553        C557   1.444       .  S
C554        C555   1.407       .  A
C555        C556   1.401   1_565  A
C555        H568   1.085   1_565  S
C556        C558   1.444       .  S
C557        N561   1.157       .  T
C558        N562   1.157       .  T
C559        N564   1.157       .  T
C560        N563   1.157       .  T
C569        C570   1.412       .  A
C569        C574   1.400       .  A
C569        C583   1.444       .  S
C570        C575   1.491       .  S
C570        C571   1.406       .  A
C571        C572   1.404       .  A
C571        H590   1.084       .  S
C572        C573   1.413       .  A
C572        C584   1.444       .  S
C573        C574   1.405       .  A
C574        H589   1.085       .  S
C575        C576   1.403       .  A
C575        C580   1.410       .  A
C576        C577   1.400       .  A
C576        H591   1.085       .  S
C577        C578   1.418       .  A
C577        C581   1.445       .  S
C578        C579   1.409       .  A
C579        C580   1.403       .  A
C579        H592   1.084       .  S
C580        C582   1.444       .  S
C581        N585   1.157       .  T
C582        N586   1.157       .  T
C583        N588   1.157       .  T
C584        N587   1.157       .  T
C593        C594   1.412       .  A
C593        C598   1.408   1_545  A
C593        C607   1.443       .  S
C594        C599   1.501       .  S
C594        C595   1.406       .  A
C595        C596   1.404       .  A
C595        H614   1.085       .  S
C596        C597   1.416   1_545  A
C596        C608   1.444       .  S
C597        C598   1.410       .  A
C598        H613   1.085       .  S
C599        C600   1.408       .  A
C599        C604   1.413       .  A
C600        C601   1.408       .  A
C600        H615   1.084       .  S
C601        C602   1.413       .  A
C601        C605   1.444       .  S
C602        C603   1.405       .  A
C603        C604   1.402       .  A
C603        H616   1.085       .  S
C604        C606   1.444       .  S
C605        N609   1.157       .  T
C606        N610   1.157       .  T
C607        N612   1.157   1_545  T
C608        N611   1.157       .  T
C617        C618   1.412       .  A
C617        C622   1.407       .  A
C617        C631   1.443       .  S
C618        C623   1.492   1_655  S
C618        C619   1.402       .  A
C619        C620   1.399       .  A
C619        H638   1.085       .  S
C620        C621   1.415       .  A
C620        C632   1.445       .  S
C621        C622   1.407       .  A
C622        H637   1.085       .  S
C623        C624   1.403       .  A
C623        C628   1.410       .  A
C624        C625   1.406       .  A
C624        H639   1.084       .  S
C625        C626   1.418       .  A
C625        C629   1.444       .  S
C626        C627   1.407       .  A
C627        C628   1.402       .  A
C627        H640   1.083       .  S
C628        C630   1.444       .  S
C629        N633   1.157       .  T
C630        N634   1.157       .  T
C631        N636   1.157       .  T
C632        N635   1.157       .  T
C641        C642   1.411       .  A
C641        C646   1.399       .  A
C641        C655   1.444       .  S
C642        C647   1.484   1_556  S
C642        C643   1.405       .  A
C643        C644   1.401       .  A
C643        H662   1.085       .  S
C644        C645   1.409       .  A
C644        C656   1.443       .  S
C645        C646   1.403       .  A
C646        H661   1.085       .  S
C647        C648   1.398       .  A
C647        C652   1.409       .  A
C648        C649   1.398       .  A
C648        H663   1.086   1_554  S
C649        C650   1.424       .  A
C649        C653   1.446       .  S
C650        C651   1.407       .  A
C651        C652   1.401       .  A
C651        H664   1.085       .  S
C652        C654   1.443       .  S
C653        N657   1.158       .  T
C654        N658   1.157       .  T
C655        N660   1.157       .  T
C656        N659   1.157       .  T
C665        C666   1.409       .  A
C665        C670   1.403       .  A
C665        C679   1.443       .  S
C666        C671   1.492       .  S
C666        C667   1.401       .  A
C667        C668   1.406       .  A
C667        H686   1.085       .  S
C668        C669   1.424       .  A
C668        C680   1.445       .  S
C669        C670   1.408       .  A
C670        H685   1.084       .  S
C671        C672   1.402       .  A
C671        C676   1.410       .  A
C672        C673   1.402       .  A
C672        H687   1.086       .  S
C673        C674   1.417       .  A
C673        C677   1.444       .  S
C674        C675   1.409       .  A
C675        C676   1.408       .  A
C675        H688   1.085       .  S
C676        C678   1.443       .  S
C677        N681   1.157       .  T
C678        N682   1.157       .  T
C679        N684   1.157       .  T
C680        N683   1.158       .  T
C689        C690   1.411       .  A
C689        C694   1.404       .  A
C689        C703   1.443       .  S
C690        C695   1.491       .  S
C690        C691   1.401       .  A
C691        C692   1.404       .  A
C691        H710   1.084       .  S
C692        C693   1.420       .  A
C692        C704   1.445       .  S
C693        C694   1.406       .  A
C694        H709   1.083       .  S
C695        C696   1.403       .  A
C695        C700   1.409       .  A
C696        C697   1.408   1_565  A
C696        H711   1.085       .  S
C697        C698   1.419       .  A
C697        C701   1.443       .  S
C698        C699   1.409   1_545  A
C699        C700   1.400       .  A
C699        H712   1.085       .  S
C700        C702   1.445       .  S
C701        N705   1.157       .  T
C702        N706   1.157       .  T
C703        N708   1.157       .  T
C704        N707   1.157       .  T
C713        C714   1.413       .  A
C713        C718   1.404       .  A
C713        C727   1.443       .  S
C714        C719   1.496   1_455  S
C714        C715   1.404       .  A
C715        C716   1.404       .  A
C715        H734   1.085       .  S
C716        C717   1.418       .  A
C716        C728   1.444       .  S
C717        C718   1.405       .  A
C718        H733   1.085       .  S
C719        C720   1.401       .  A
C719        C724   1.413       .  A
C720        C721   1.398       .  A
C720        H735   1.086       .  S
C721        C722   1.421       .  A
C721        C725   1.445       .  S
C722        C723   1.410       .  A
C723        C724   1.409       .  A
C723        H736   1.085       .  S
C724        C726   1.443       .  S
C725        N729   1.157       .  T
C726        N730   1.157       .  T
C727        N732   1.157       .  T
C728        N731   1.157       .  T
C737        C738   1.409       .  A
C737        C742   1.401   1_565  A
C737        C751   1.444       .  S
C738        C743   1.482   1_556  S
C738        C739   1.400   1_565  A
C739        C740   1.401       .  A
C739        H758   1.085       .  S
C740        C741   1.416       .  A
C740        C752   1.444       .  S
C741        C742   1.407       .  A
C742        H757   1.085   1_545  S
C743        C744   1.401       .  A
C743        C748   1.408       .  A
C744        C745   1.403       .  A
C744        H759   1.085   1_554  S
C745        C746   1.417       .  A
C745        C749   1.444       .  S
C746        C747   1.407       .  A
C747        C748   1.398       .  A
C747        H760   1.085       .  S
C748        C750   1.443   1_565  S
C749        N753   1.157       .  T
C750        N754   1.157       .  T
C751        N756   1.157       .  T
C752        N755   1.157       .  T
C761        C762   1.407       .  A
C761        C766   1.393       .  A
C761        C775   1.445   1_554  S
C762        C767   1.479   1_554  S
C762        C763   1.405       .  A
C763        C764   1.403       .  A
C763        H782   1.085       .  S
C764        C765   1.412       .  A
C764        C776   1.444       .  S
C765        C766   1.407       .  A
C766        H781   1.085       .  S
C767        C768   1.401       .  A
C767        C772   1.410       .  A
C768        C769   1.399       .  A
C768        H783   1.085   1_556  S
C769        C770   1.414       .  A
C769        C773   1.444       .  S
C770        C771   1.405       .  A
C771        C772   1.397       .  A
C771        H784   1.085       .  S
C772        C774   1.444       .  S
C773        N777   1.157       .  T
C774        N778   1.157       .  T
C775        N780   1.157       .  T
C776        N779   1.157       .  T
C785        C786   1.412       .  A
C785        C790   1.408       .  A
C785        C799   1.443       .  S
C786        C791   1.497       .  S
C786        C787   1.404       .  A
C787        C788   1.405       .  A
C787        H806   1.085       .  S
C788        C789   1.417       .  A
C788        C800   1.444       .  S
C789        C790   1.409       .  A
C790        H805   1.084       .  S
C791        C792   1.402       .  A
C791        C796   1.412       .  A
C792        C793   1.404       .  A
C792        H807   1.085       .  S
C793        C794   1.418   1_545  A
C793        C797   1.445       .  S
C794        C795   1.409       .  A
C795        C796   1.410   1_565  A
C795        H808   1.084       .  S
C796        C798   1.443   1_545  S
C797        N801   1.157       .  T
C798        N802   1.157       .  T
C799        N804   1.157       .  T
C800        N803   1.157       .  T
C809        C810   1.411       .  A
C809        C814   1.404       .  A
C809        C823   1.444       .  S
C810        C815   1.496       .  S
C810        C811   1.406       .  A
C811        C812   1.405       .  A
C811        H830   1.085       .  S
C812        C813   1.416       .  A
C812        C824   1.444       .  S
C813        C814   1.409       .  A
C814        H829   1.085       .  S
C815        C816   1.407       .  A
C815        C820   1.411       .  A
C816        C817   1.409       .  A
C816        H831   1.084       .  S
C817        C818   1.416       .  A
C817        C821   1.443       .  S
C818        C819   1.408       .  A
C819        C820   1.399       .  A
C819        H832   1.085       .  S
C820        C822   1.445       .  S
C821        N825   1.157       .  T
C822        N826   1.157       .  T
C823        N828   1.157       .  T
C824        N827   1.157       .  T
C833        C834   1.412       .  A
C833        C838   1.401       .  A
C833        C847   1.444       .  S
C834        C839   1.489       .  S
C834        C835   1.403       .  A
C835        C836   1.401       .  A
C835        H854   1.085       .  S
C836        C837   1.417       .  A
C836        C848   1.445       .  S
C837        C838   1.405       .  A
C838        H853   1.085       .  S
C839        C840   1.403       .  A
C839        C844   1.411       .  A
C840        C841   1.401       .  A
C840        H855   1.085       .  S
C841        C842   1.416       .  A
C841        C845   1.444       .  S
C842        C843   1.406       .  A
C843        C844   1.401       .  A
C843        H856   1.085       .  S
C844        C846   1.444       .  S
C845        N849   1.157       .  T
C846        N850   1.157       .  T
C847        N852   1.157       .  T
C848        N851   1.157       .  T
C857        C858   1.408       .  A
C857        C862   1.397       .  A
C857        C871   1.444       .  S
C858        C863   1.474       .  S
C858        C859   1.401       .  A
C859        C860   1.399       .  A
C859        H878   1.084       .  S
C860        C861   1.411       .  A
C860        C872   1.444       .  S
C861        C862   1.402       .  A
C862        H877   1.084       .  S
C863        C864   1.398       .  A
C863        C868   1.405       .  A
C864        C865   1.400       .  A
C864        H879   1.085       .  S
C865        C866   1.420       .  A
C865        C869   1.444       .  S
C866        C867   1.410       .  A
C867        C868   1.396       .  A
C867        H880   1.084       .  S
C868        C870   1.445       .  S
C869        N873   1.157       .  T
C870        N874   1.157       .  T
C871        N876   1.157       .  T
C872        N875   1.157       .  T
C881        C882   1.412       .  A
C881        C886   1.398       .  A
C881        C895   1.445       .  S
C882        C887   1.489       .  S
C882        C883   1.404       .  A
C883        C884   1.401       .  A
C883        H902   1.085       .  S
C884        C885   1.416       .  A
C884        C896   1.444       .  S
C885        C886   1.406       .  A
C886        H901   1.085       .  S
C887        C888   1.403       .  A
C887        C892   1.412       .  A
C888        C889   1.397       .  A
C888        H903   1.085       .  S
C889        C890   1.416       .  A
C889        C893   1.443       .  S
C890        C891   1.408       .  A
C891        C892   1.401       .  A
C891        H904   1.084       .  S
C892        C894   1.444       .  S
C893        N897   1.157       .  T
C894        N898   1.157       .  T
C895        N900   1.157       .  T
C896        N899   1.157       .  T
C905        C906   1.410       .  A
C905        C910   1.401       .  A
C905        C919   1.443       .  S
C906        C911   1.484       .  S
C906        C907   1.403       .  A
C907        C908   1.401       .  A
C907        H926   1.085       .  S
C908        C909   1.412       .  A
C908        C920   1.444       .  S
C909        C910   1.403       .  A
C910        H925   1.085       .  S
C911        C912   1.402       .  A
C911        C916   1.408       .  A
C912        C913   1.403       .  A
C912        H927   1.084       .  S
C913        C914   1.416       .  A
C913        C917   1.444       .  S
C914        C915   1.406       .  A
C915        C916   1.400       .  A
C915        H928   1.081       .  S
C916        C918   1.444       .  S
C917        N921   1.157       .  T
C918        N922   1.157       .  T
C919        N924   1.157       .  T
C920        N923   1.157       .  T
C929        C930   1.411       .  A
C929        C934   1.402       .  A
C929        C943   1.444       .  S
C930        C935   1.488       .  S
C930        C931   1.403       .  A
C931        C932   1.399       .  A
C931        H950   1.085       .  S
C932        C933   1.414       .  A
C932        C944   1.444       .  S
C933        C934   1.405       .  A
C934        H949   1.085       .  S
C935        C936   1.405       .  A
C935        C940   1.412       .  A
C936        C937   1.405       .  A
C936        H951   1.085       .  S
C937        C938   1.414       .  A
C937        C941   1.444       .  S
C938        C939   1.404       .  A
C939        C940   1.396       .  A
C939        H952   1.085       .  S
C940        C942   1.445       .  S
C941        N945   1.157       .  T
C942        N946   1.157       .  T
C943        N948   1.157       .  T
C944        N947   1.157       .  T
C953        C954   1.407       .  A
C953        C958   1.401       .  A
C953        C967   1.443       .  S
C954        C959   1.485       .  S
C954        C955   1.401       .  A
C955        C956   1.404       .  A
C955        H974   1.085       .  S
C956        C957   1.419       .  A
C956        C968   1.445       .  S
C957        C958   1.408       .  A
C958        H973   1.085       .  S
C959        C960   1.399       .  A
C959        C964   1.410       .  A
C960        C961   1.399       .  A
C960        H975   1.085       .  S
C961        C962   1.416       .  A
C961        C965   1.444       .  S
C962        C963   1.408       .  A
C963        C964   1.406       .  A
C963        H976   1.085       .  S
C964        C966   1.443       .  S
C965        N969   1.157       .  T
C966        N970   1.157       .  T
C967        N972   1.157       .  T
C968        N971   1.158       .  T
C977        C978   1.409       .  A
C977        C982   1.400       .  A
C977        C991   1.445       .  S
C978        C983   1.489       .  S
C978        C979   1.405       .  A
C979        C980   1.408       .  A
C979        H998   1.084       .  S
C980        C981   1.415       .  A
C980        C992   1.443       .  S
C981        C982   1.407       .  A
C982        H997   1.085       .  S
C983        C984   1.398       .  A
C983        C988   1.410       .  A
C984        C985   1.400       .  A
C984        H999   1.085       .  S
C985        C986   1.421       .  A
C985        C989   1.444       .  S
C986        C987   1.409       .  A
C987        C988   1.406       .  A
C987       H1000   1.085       .  S
C988        C990   1.443       .  S
C989        N993   1.157       .  T
C990        N994   1.157       .  T
C991        N996   1.157       .  T
C992        N995   1.157       .  T
C1001      C1002   1.410       .  A
C1001      C1006   1.398       .  A
C1001      C1015   1.445       .  S
C1002      C1007   1.484       .  S
C1002      C1003   1.402       .  A
C1003      C1004   1.402       .  A
C1003      H1022   1.084       .  S
C1004      C1005   1.417       .  A
C1004      C1016   1.444       .  S
C1005      C1006   1.407       .  A
C1006      H1021   1.084       .  S
C1007      C1008   1.401       .  A
C1007      C1012   1.411       .  A
C1008      C1009   1.396       .  A
C1008      H1023   1.085       .  S
C1009      C1010   1.412       .  A
C1009      C1013   1.444       .  S
C1010      C1011   1.404       .  A
C1011      C1012   1.404       .  A
C1011      H1024   1.084       .  S
C1012      C1014   1.443       .  S
C1013      N1017   1.157       .  T
C1014      N1018   1.157       .  T
C1015      N1020   1.157       .  T
C1016      N1019   1.157       .  T
C1025      C1026   1.408       .  A
C1025      C1030   1.402       .  A
C1025      C1039   1.444       .  S
C1026      C1031   1.488       .  S
C1026      C1027   1.401       .  A
C1027      C1028   1.404       .  A
C1027      H1046   1.085       .  S
C1028      C1029   1.418       .  A
C1028      C1040   1.442       .  S
C1029      C1030   1.410       .  A
C1030      H1045   1.085       .  S
C1031      C1032   1.400       .  A
C1031      C1036   1.410       .  A
C1032      C1033   1.400       .  A
C1032      H1047   1.085       .  S
C1033      C1034   1.420       .  A
C1033      C1037   1.445       .  S
C1034      C1035   1.408       .  A
C1035      C1036   1.405       .  A
C1035      H1048   1.085       .  S
C1036      C1038   1.443       .  S
C1037      N1041   1.157       .  T
C1038      N1042   1.157       .  T
C1039      N1044   1.157       .  T
C1040      N1043   1.156       .  T
C1049      C1050   1.410       .  A
C1049      C1054   1.403       .  A
C1049      C1063   1.444       .  S
C1050      C1055   1.491       .  S
C1050      C1051   1.403       .  A
C1051      C1052   1.405       .  A
C1051      H1070   1.085       .  S
C1052      C1053   1.417       .  A
C1052      C1064   1.445       .  S
C1053      C1054   1.409       .  A
C1054      H1069   1.084       .  S
C1055      C1056   1.401       .  A
C1055      C1060   1.409   1_565  A
C1056      C1057   1.403       .  A
C1056      H1071   1.085       .  S
C1057      C1058   1.420   1_565  A
C1057      C1061   1.444       .  S
C1058      C1059   1.411       .  A
C1059      C1060   1.405       .  A
C1059      H1072   1.084       .  S
C1060      C1062   1.443       .  S
C1061      N1065   1.157       .  T
C1062      N1066   1.157       .  T
C1063      N1068   1.157       .  T
C1064      N1067   1.158       .  T
C1073      C1074   1.412       .  A
C1073      C1078   1.402       .  A
C1073      C1087   1.444       .  S
C1074      C1079   1.494       .  S
C1074      C1075   1.405       .  A
C1075      C1076   1.406       .  A
C1075      H1094   1.085       .  S
C1076      C1077   1.414       .  A
C1076      C1088   1.444       .  S
C1077      C1078   1.405       .  A
C1078      H1093   1.085       .  S
C1079      C1080   1.403       .  A
C1079      C1084   1.411       .  A
C1080      C1081   1.402       .  A
C1080      H1095   1.085       .  S
C1081      C1082   1.416       .  A
C1081      C1085   1.445       .  S
C1082      C1083   1.407       .  A
C1083      C1084   1.407       .  A
C1083      H1096   1.085       .  S
C1084      C1086   1.443       .  S
C1085      N1089   1.157       .  T
C1086      N1090   1.157       .  T
C1087      N1092   1.157       .  T
C1088      N1091   1.157       .  T
C1097      C1098   1.409       .  A
C1097      C1102   1.393       .  A
C1097      C1111   1.445       .  S
C1098      C1103   1.490       .  S
C1098      C1099   1.409       .  A
C1099      C1100   1.409       .  A
C1099      H1118   1.084       .  S
C1100      C1101   1.412       .  A
C1100      C1112   1.442       .  S
C1101      C1102   1.409       .  A
C1102      H1117   1.085       .  S
C1103      C1104   1.406       .  A
C1103      C1108   1.412       .  A
C1104      C1105   1.405       .  A
C1104      H1119   1.084       .  S
C1105      C1106   1.412       .  A
C1105      C1109   1.445       .  S
C1106      C1107   1.402       .  A
C1107      C1108   1.397       .  A
C1107      H1120   1.085       .  S
C1108      C1110   1.444       .  S
C1109      N1113   1.158       .  T
C1110      N1114   1.157       .  T
C1111      N1116   1.157       .  T
C1112      N1115   1.157       .  T
C1121      C1122   1.409       .  A
C1121      C1126   1.398       .  A
C1121      C1135   1.445       .  S
C1122      C1127   1.481       .  S
C1122      C1123   1.399       .  A
C1123      C1124   1.398       .  A
C1123      H1142   1.085       .  S
C1124      C1125   1.420       .  A
C1124      C1136   1.444       .  S
C1125      C1126   1.408       .  A
C1126      H1141   1.084       .  S
C1127      C1128   1.402       .  A
C1127      C1132   1.411       .  A
C1128      C1129   1.398       .  A
C1128      H1143   1.085       .  S
C1129      C1130   1.410       .  A
C1129      C1133   1.445       .  S
C1130      C1131   1.402       .  A
C1131      C1132   1.399       .  A
C1131      H1144   1.085       .  S
C1132      C1134   1.444       .  S
C1133      N1137   1.157       .  T
C1134      N1138   1.157       .  T
C1135      N1140   1.157       .  T
C1136      N1139   1.157       .  T
C1145      C1146   1.411       .  A
C1145      C1150   1.401       .  A
C1145      C1159   1.444       .  S
C1146      C1151   1.487       .  S
C1146      C1147   1.403       .  A
C1147      C1148   1.398       .  A
C1147      H1166   1.085       .  S
C1148      C1149   1.415       .  A
C1148      C1160   1.445       .  S
C1149      C1150   1.405       .  A
C1150      H1165   1.085       .  S
C1151      C1152   1.406       .  A
C1151      C1156   1.408       .  A
C1152      C1153   1.404       .  A
C1152      H1167   1.085       .  S
C1153      C1154   1.415       .  A
C1153      C1157   1.443       .  S
C1154      C1155   1.411       .  A
C1155      C1156   1.396       .  A
C1155      H1168   1.084       .  S
C1156      C1158   1.445       .  S
C1157      N1161   1.157       .  T
C1158      N1162   1.157       .  T
C1159      N1164   1.157       .  T
C1160      N1163   1.157       .  T
C1169      C1170   1.407       .  A
C1169      C1174   1.397       .  A
C1169      C1183   1.444       .  S
C1170      C1175   1.480       .  S
C1170      C1171   1.402   1_545  A
C1171      C1172   1.402       .  A
C1171      H1190   1.084       .  S
C1172      C1173   1.416       .  A
C1172      C1184   1.444       .  S
C1173      C1174   1.406   1_565  A
C1174      H1189   1.084       .  S
C1175      C1176   1.401       .  A
C1175      C1180   1.409       .  A
C1176      C1177   1.402       .  A
C1176      H1191   1.085       .  S
C1177      C1178   1.413       .  A
C1177      C1181   1.444       .  S
C1178      C1179   1.404       .  A
C1179      C1180   1.399       .  A
C1179      H1192   1.085       .  S
C1180      C1182   1.445   1_545  S
C1181      N1185   1.157       .  T
C1182      N1186   1.157       .  T
C1183      N1188   1.157       .  T
C1184      N1187   1.157       .  T
C1193      C1194   1.412       .  A
C1193      C1198   1.403       .  A
C1193      C1207   1.445       .  S
C1194      C1199   1.498       .  S
C1194      C1195   1.404       .  A
C1195      C1196   1.406       .  A
C1195      H1214   1.085       .  S
C1196      C1197   1.420       .  A
C1196      C1208   1.443       .  S
C1197      C1198   1.409       .  A
C1198      H1213   1.084       .  S
C1199      C1200   1.405       .  A
C1199      C1204   1.412       .  A
C1200      C1201   1.405       .  A
C1200      H1215   1.085       .  S
C1201      C1202   1.415       .  A
C1201      C1205   1.443       .  S
C1202      C1203   1.409       .  A
C1203      C1204   1.405       .  A
C1203      H1216   1.085       .  S
C1204      C1206   1.444       .  S
C1205      N1209   1.157       .  T
C1206      N1210   1.157       .  T
C1207      N1212   1.157       .  T
C1208      N1211   1.157       .  T
C1217      C1218   1.410       .  A
C1217      C1222   1.402       .  A
C1217      C1231   1.444       .  S
C1218      C1223   1.487       .  S
C1218      C1219   1.401       .  A
C1219      C1220   1.405       .  A
C1219      H1238   1.085       .  S
C1220      C1221   1.417       .  A
C1220      C1232   1.444   1_545  S
C1221      C1222   1.407       .  A
C1222      H1237   1.085       .  S
C1223      C1224   1.401       .  A
C1223      C1228   1.409       .  A
C1224      C1225   1.403       .  A
C1224      H1239   1.088       .  S
C1225      C1226   1.419       .  A
C1225      C1229   1.444       .  S
C1226      C1227   1.407       .  A
C1227      C1228   1.401       .  A
C1227      H1240   1.087       .  S
C1228      C1230   1.443       .  S
C1229      N1233   1.157       .  T
C1230      N1234   1.157       .  T
C1231      N1236   1.157       .  T
C1232      N1235   1.157       .  T
C1241      C1242   1.412       .  A
C1241      C1246   1.400       .  A
C1241      C1255   1.444       .  S
C1242      C1247   1.489       .  S
C1242      C1243   1.404       .  A
C1243      C1244   1.402       .  A
C1243      H1262   1.085       .  S
C1244      C1245   1.415       .  A
C1244      C1256   1.445       .  S
C1245      C1246   1.405       .  A
C1246      H1261   1.085       .  S
C1247      C1248   1.403       .  A
C1247      C1252   1.412       .  A
C1248      C1249   1.402       .  A
C1248      H1263   1.085       .  S
C1249      C1250   1.418       .  A
C1249      C1253   1.444       .  S
C1250      C1251   1.407       .  A
C1251      C1252   1.400       .  A
C1251      H1264   1.085       .  S
C1252      C1254   1.445       .  S
C1253      N1257   1.157       .  T
C1254      N1258   1.157       .  T
C1255      N1260   1.157       .  T
C1256      N1259   1.157       .  T
C1265      C1266   1.409       .  A
C1265      C1270   1.399       .  A
C1265      C1279   1.445       .  S
C1266      C1271   1.486   1_455  S
C1266      C1267   1.404       .  A
C1267      C1268   1.406       .  A
C1267      H1286   1.084       .  S
C1268      C1269   1.413       .  A
C1268      C1280   1.444       .  S
C1269      C1270   1.406       .  A
C1270      H1285   1.085       .  S
C1271      C1272   1.399       .  A
C1271      C1276   1.409       .  A
C1272      C1273   1.401       .  A
C1272      H1287   1.085       .  S
C1273      C1274   1.421       .  A
C1273      C1277   1.445       .  S
C1274      C1275   1.409       .  A
C1275      C1276   1.404       .  A
C1275      H1288   1.084       .  S
C1276      C1278   1.443       .  S
C1277      N1281   1.157       .  T
C1278      N1282   1.157       .  T
C1279      N1284   1.157       .  T
C1280      N1283   1.157       .  T
C1289      C1290   1.412       .  A
C1289      C1294   1.397       .  A
C1289      C1303   1.444       .  S
C1290      C1295   1.487       .  S
C1290      C1291   1.408       .  A
C1291      C1292   1.400       .  A
C1291      H1310   1.084       .  S
C1292      C1293   1.406       .  A
C1292      C1304   1.444       .  S
C1293      C1294   1.401       .  A
C1294      H1309   1.085       .  S
C1295      C1296   1.408       .  A
C1295      C1300   1.408       .  A
C1296      C1297   1.403       .  A
C1296      H1311   1.084       .  S
C1297      C1298   1.409       .  A
C1297      C1301   1.442       .  S
C1298      C1299   1.407       .  A
C1299      C1300   1.395       .  A
C1299      H1312   1.085       .  S
C1300      C1302   1.445       .  S
C1301      N1305   1.157       .  T
C1302      N1306   1.157       .  T
C1303      N1308   1.157       .  T
C1304      N1307   1.157       .  T
C1313      C1314   1.414       .  A
C1313      C1318   1.403       .  A
C1313      C1327   1.445       .  S
C1314      C1319   1.502       .  S
C1314      C1315   1.405       .  A
C1315      C1316   1.406       .  A
C1315      H1334   1.085       .  S
C1316      C1317   1.420       .  A
C1316      C1328   1.444       .  S
C1317      C1318   1.409       .  A
C1318      H1333   1.084       .  S
C1319      C1320   1.406       .  A
C1319      C1324   1.414       .  A
C1320      C1321   1.406       .  A
C1320      H1335   1.085       .  S
C1321      C1322   1.417       .  A
C1321      C1325   1.443       .  S
C1322      C1323   1.407       .  A
C1323      C1324   1.403       .  A
C1323      H1336   1.085       .  S
C1324      C1326   1.444       .  S
C1325      N1329   1.157       .  T
C1326      N1330   1.157       .  T
C1327      N1332   1.157       .  T
C1328      N1331   1.157       .  T
C1337      C1338   1.410       .  A
C1337      C1342   1.404       .  A
C1337      C1351   1.444       .  S
C1338      C1343   1.492       .  S
C1338      C1339   1.404       .  A
C1339      C1340   1.405       .  A
C1339      H1358   1.085       .  S
C1340      C1341   1.415       .  A
C1340      C1352   1.444       .  S
C1341      C1342   1.409       .  A
C1342      H1357   1.085       .  S
C1343      C1344   1.403       .  A
C1343      C1348   1.410       .  A
C1344      C1345   1.407   1_565  A
C1344      H1359   1.084       .  S
C1345      C1346   1.418       .  A
C1345      C1349   1.443       .  S
C1346      C1347   1.407   1_545  A
C1347      C1348   1.401       .  A
C1347      H1360   1.083       .  S
C1348      C1350   1.444       .  S
C1349      N1353   1.157       .  T
C1350      N1354   1.157       .  T
C1351      N1356   1.157       .  T
C1352      N1355   1.157       .  T
C1361      C1362   1.409       .  A
C1361      C1366   1.399       .  A
C1361      C1375   1.444       .  S
C1362      C1367   1.481       .  S
C1362      C1363   1.400       .  A
C1363      C1364   1.398       .  A
C1363      H1382   1.085       .  S
C1364      C1365   1.419       .  A
C1364      C1376   1.445       .  S
C1365      C1366   1.407       .  A
C1366      H1381   1.084       .  S
C1367      C1368   1.402       .  A
C1367      C1372   1.411       .  A
C1368      C1369   1.397       .  A
C1368      H1383   1.085       .  S
C1369      C1370   1.412       .  A
C1369      C1373   1.445       .  S
C1370      C1371   1.403       .  A
C1371      C1372   1.399       .  A
C1371      H1384   1.085       .  S
C1372      C1374   1.444       .  S
C1373      N1377   1.157       .  T
C1374      N1378   1.157       .  T
C1375      N1380   1.157       .  T
C1376      N1379   1.157       .  T
C1385      C1386   1.413       .  A
C1385      C1390   1.405       .  A
C1385      C1399   1.444       .  S
C1386      C1391   1.498   1_655  S
C1386      C1387   1.405       .  A
C1387      C1388   1.406       .  A
C1387      H1406   1.085       .  S
C1388      C1389   1.416       .  A
C1388      C1400   1.444       .  S
C1389      C1390   1.406       .  A
C1390      H1405   1.085       .  S
C1391      C1392   1.407       .  A
C1391      C1396   1.412       .  A
C1392      C1393   1.409       .  A
C1392      H1407   1.085       .  S
C1393      C1394   1.413       .  A
C1393      C1397   1.443       .  S
C1394      C1395   1.407       .  A
C1395      C1396   1.402       .  A
C1395      H1408   1.085       .  S
C1396      C1398   1.444       .  S
C1397      N1401   1.157       .  T
C1398      N1402   1.157   1_455  T
C1399      N1404   1.157   1_655  T
C1400      N1403   1.157       .  T
C1409      C1410   1.409       .  A
C1409      C1414   1.397       .  A
C1409      C1423   1.445   1_565  S
C1410      C1415   1.481       .  S
C1410      C1411   1.400       .  A
C1411      C1412   1.401       .  A
C1411      H1430   1.085       .  S
C1412      C1413   1.420       .  A
C1412      C1424   1.445       .  S
C1413      C1414   1.406       .  A
C1414      H1429   1.085       .  S
C1415      C1416   1.399       .  A
C1415      C1420   1.406   1_565  A
C1416      C1417   1.401       .  A
C1416      H1431   1.085       .  S
C1417      C1418   1.420   1_565  A
C1417      C1421   1.443       .  S
C1418      C1419   1.410       .  A
C1419      C1420   1.399       .  A
C1419      H1432   1.084       .  S
C1420      C1422   1.444       .  S
C1421      N1425   1.157       .  T
C1422      N1426   1.157       .  T
C1423      N1428   1.157       .  T
C1424      N1427   1.158       .  T
C1433      C1434   1.410       .  A
C1433      C1438   1.400       .  A
C1433      C1447   1.445       .  S
C1434      C1439   1.484       .  S
C1434      C1435   1.403       .  A
C1435      C1436   1.398       .  A
C1435      H1454   1.085       .  S
C1436      C1437   1.413       .  A
C1436      C1448   1.444       .  S
C1437      C1438   1.407       .  A
C1438      H1453   1.085       .  S
C1439      C1440   1.405       .  A
C1439      C1444   1.408       .  A
C1440      C1441   1.402       .  A
C1440      H1455   1.085       .  S
C1441      C1442   1.415       .  A
C1441      C1445   1.444       .  S
C1442      C1443   1.407       .  A
C1443      C1444   1.395       .  A
C1443      H1456   1.085       .  S
C1444      C1446   1.444       .  S
C1445      N1449   1.157       .  T
C1446      N1450   1.157       .  T
C1447      N1452   1.157       .  T
C1448      N1451   1.157       .  T
C1457      C1458   1.412       .  A
C1457      C1462   1.407       .  A
C1457      C1471   1.443       .  S
C1458      C1463   1.490       .  S
C1458      C1459   1.402       .  A
C1459      C1460   1.398       .  A
C1459      H1478   1.085       .  S
C1460      C1461   1.415       .  A
C1460      C1472   1.445       .  S
C1461      C1462   1.406       .  A
C1462      H1477   1.085       .  S
C1463      C1464   1.404   1_545  A
C1463      C1468   1.412       .  A
C1464      C1465   1.407       .  A
C1464      H1479   1.084       .  S
C1465      C1466   1.416       .  A
C1465      C1469   1.443       .  S
C1466      C1467   1.404   1_565  A
C1467      C1468   1.398       .  A
C1467      H1480   1.085       .  S
C1468      C1470   1.445       .  S
C1469      N1473   1.157       .  T
C1470      N1474   1.157       .  T
C1471      N1476   1.157       .  T
C1472      N1475   1.157       .  T
C1481      C1482   1.410       .  A
C1481      C1486   1.403       .  A
C1481      C1495   1.444       .  S
C1482      C1487   1.490       .  S
C1482      C1483   1.401       .  A
C1483      C1484   1.404       .  A
C1483      H1502   1.085       .  S
C1484      C1485   1.422       .  A
C1484      C1496   1.445       .  S
C1485      C1486   1.409       .  A
C1486      H1501   1.084       .  S
C1487      C1488   1.400       .  A
C1487      C1492   1.410       .  A
C1488      C1489   1.405       .  A
C1488      H1503   1.085       .  S
C1489      C1490   1.423       .  A
C1489      C1493   1.444       .  S
C1490      C1491   1.408       .  A
C1491      C1492   1.403       .  A
C1491      H1504   1.083       .  S
C1492      C1494   1.444       .  S
C1493      N1497   1.157       .  T
C1494      N1498   1.157       .  T
C1495      N1500   1.157       .  T
C1496      N1499   1.157       .  T
