geometry optimzed in LAMMPS
_audit_creation_date              2020-12-01 
_audit_creation_method            'lammps2cif' 
_symmetry_space_group_name_H-M    'P1' 
_symmetry_Int_Tables_number       1 
_symmetry_cell_setting            triclinic 
loop_ 
_symmetry_equiv_pos_as_xyz 
  x,y,z 
_cell_length_a                    42.30038449 
_cell_length_b                    33.76166311308992 
_cell_length_c                    40.27711492470372 
_cell_angle_alpha                 90.0340423692278 
_cell_angle_beta                  98.86468050403359 
_cell_angle_gamma                 90.49460785819869 
loop_ 
_atom_site_label 
_atom_site_type_symbol 
_atom_site_fract_x 
_atom_site_fract_y 
_atom_site_fract_z 
_atom_site_charge 
O1          O  0.08557645  0.63406102  0.35884669    -0.84200
O2          O  0.13440428  0.58384550  0.37968002    -0.81300
C3          C  0.12080846  0.54989828  0.37897190     0.99200
O4          O  0.10895036  0.53423887  0.35162658    -0.81300
O5          O  0.08370396  0.52343615  0.28596582    -0.84000
C6          C  0.05567905  0.53710310  0.28384490     1.03800
O7          O  0.05191402  0.57189336  0.29307464    -0.76700
O8          O  0.06073397  0.64959136  0.30908045    -0.76900
C9          C  0.06070426  0.64537527  0.34034971     1.03700
O10         O  0.12374224  0.67726467  0.31445028    -0.84200
O11         O  0.17150462  0.62203145  0.33393951    -0.81300
C12         C  0.18558792  0.58942333  0.33963110     0.99200
O13         O  0.16966016  0.55734878  0.33527346    -0.81300
O14         O  0.14144566  0.55536840  0.26793949    -0.83900
C15         C  0.12028875  0.55772966  0.24236019     1.03700
O16         O  0.09464061  0.57637897  0.24412701    -0.76800
O17         O  0.10868856  0.65157464  0.26439473    -0.76900
C18         C  0.12033289  0.67993101  0.28239057     1.03700
Cr19       Cr  0.12773152  0.62763129  0.34435953     1.93700
Cr20       Cr  0.12523368  0.54621082  0.31038172     1.93200
Cr21       Cr  0.08120170  0.61158445  0.27986106     1.39100
O22         O  0.11179933  0.59547895  0.31139800    -1.22000
O23         O  0.42021086  0.63388244  0.38178075    -0.84200
O24         O  0.36952869  0.58526730  0.35981185    -0.81300
C25         C  0.38266907  0.55141168  0.35974571     0.99200
O26         O  0.39447328  0.53531371  0.38680484    -0.81300
O27         O  0.42037356  0.52367227  0.45205063    -0.84000
C28         C  0.44844619  0.53792757  0.45451137     1.03800
O29         O  0.45238447  0.57285548  0.44569833    -0.76700
O30         O  0.44426187  0.65059057  0.43165920    -0.76900
C31         C  0.44496791  0.64560873  0.40060345     1.03700
O32         O  0.38358452  0.67778460  0.42664784    -0.84200
O33         O  0.33400066  0.62344955  0.40669679    -0.81300
C34         C  0.31909091  0.59095836  0.40147746     0.99200
O35         O  0.33429060  0.55857722  0.40493121    -0.81300
O36         O  0.36319103  0.55425979  0.47154701    -0.83900
C37         C  0.38411418  0.55585124  0.99684518     1.03700
O38         O  0.40994238  0.57481107  0.99527768    -0.76800
O39         O  0.39636489  0.65056261  0.47630242    -0.76900
C40         C  0.38681080  0.67989241  0.45877828     1.03700
Cr41       Cr  0.37778066  0.62845037  0.39597809     1.93700
Cr42       Cr  0.37881787  0.54646871  0.42862676     1.93200
Cr43       Cr  0.42363776  0.61151419  0.46018739     1.39100
O44         O  0.39288078  0.59575969  0.42846681    -1.22000
O45         O  0.38029775  0.32574103  0.17572280    -0.84200
O46         O  0.33190266  0.37957803  0.15512713    -0.81300
C47         C  0.31769915  0.41208892  0.14937565     0.99200
O48         O  0.33346831  0.44432999  0.15331082    -0.81300
O49         O  0.36307210  0.45030635  0.22030360    -0.84000
C50         C  0.38457306  0.44807715  0.24566685     1.03800
O51         O  0.41007570  0.42931004  0.24348288    -0.76700
O52         O  0.39447752  0.35370623  0.22500779    -0.76900
C53         C  0.38402212  0.32419026  0.20779044     1.03700
O54         O  0.41767542  0.36674085  0.13019655    -0.84200
O55         O  0.36810843  0.41584110  0.10794602    -0.81300
C56         C  0.38178312  0.44955664  0.10775025     0.99200
O57         O  0.39353163  0.46624917  0.13465030    -0.81300
O58         O  0.42031679  0.47951555  0.19912498    -0.83900
C59         C  0.44822210  0.46546490  0.20099776     1.03700
O60         O  0.45161590  0.43020962  0.19285010    -0.76800
O61         O  0.44173491  0.35205832  0.18027583    -0.76900
C62         C  0.44214469  0.35450527  0.14898988     1.03700
Cr63       Cr  0.37553846  0.37385886  0.14458456     1.93700
Cr64       Cr  0.37820049  0.45652350  0.17668957     1.93200
Cr65       Cr  0.42225642  0.39213690  0.20826339     1.39100
O66         O  0.39142507  0.40720123  0.17671906    -1.22000
O67         O  0.12012373  0.32655740  0.06284107    -0.84200
O68         O  0.16909085  0.38065915  0.08358862    -0.81300
C69         C  0.18382904  0.41317171  0.08903287     0.99200
O70         O  0.16845660  0.44533903  0.08564151    -0.81300
O71         O  0.13946251  0.45038010  0.01869506    -0.84000
C72         C  0.11801954  0.44768885  0.49300870     1.03800
O73         O  0.09198709  0.42946422  0.49518749    -0.76700
O74         O  0.10528302  0.35381576  0.01352729    -0.76900
C75         C  0.11617841  0.32473159  0.03070219     1.03700
O76         O  0.08307216  0.36794129  0.10848294    -0.84200
O77         O  0.13305172  0.41745946  0.13071964    -0.81300
C78         C  0.11996022  0.45129694  0.13074754     0.99200
O79         O  0.10856662  0.46765357  0.10369897    -0.81300
O80         O  0.08280446  0.48071278  0.03923273    -0.83900
C81         C  0.05463246  0.46717821  0.03769049     1.03700
O82         O  0.05040226  0.43201441  0.04584879    -0.76800
O83         O  0.05826625  0.35365669  0.05850449    -0.76900
C84         C  0.05824032  0.35590136  0.08986295     1.03700
Cr85       Cr  0.12530435  0.37499764  0.09409053     1.93700
Cr86       Cr  0.12413117  0.45737526  0.06198512     1.93200
Cr87       Cr  0.07873652  0.39312032  0.03049183     1.39100
O88         O  0.10995850  0.40811174  0.06195019    -1.22000
O89         O  0.37684015  0.82498894  0.06623853    -0.84200
O90         O  0.42483534  0.88107933  0.08468231    -0.81300
C91         C  0.43905027  0.91412245  0.08878348     0.99200
O92         O  0.42310183  0.94585064  0.08505246    -0.81300
O93         O  0.39375313  0.94858369  0.01846215    -0.84000
C94         C  0.37262845  0.94646688  0.49323960     1.03800
O95         O  0.34744978  0.92639518  0.49529538    -0.76700
O96         O  0.36357632  0.85076088  0.01606911    -0.76900
C97         C  0.37433498  0.82235876  0.03427061     1.03700
O98         O  0.33897553  0.86754462  0.11031621    -0.84200
O99         O  0.38872803  0.91850930  0.13118253    -0.81300
C100        C  0.37516024  0.95203772  0.13071724     0.99200
O101        O  0.36290286  0.96719920  0.10341704    -0.81300
O102        O  0.33629849  0.97748441  0.03872080    -0.83900
C103        C  0.30830305  0.96312805  0.03673311     1.03700
O104        O  0.30447129  0.92752853  0.04404090    -0.76800
O105        O  0.31530996  0.85055133  0.06037072    -0.76900
C106        C  0.31446672  0.85492727  0.09157565     1.03700
Cr107      Cr  0.38124609  0.87482141  0.09574147     1.93700
Cr108      Cr  0.37833677  0.95613717  0.06163459     1.93200
Cr109      Cr  0.33489879  0.88943245  0.03103836     1.39100
O110        O  0.36518946  0.90660330  0.06269352    -1.22000
O111        O  0.13453944  0.82623448  0.17602400    -0.84200
O112        O  0.08648445  0.88141681  0.15588157    -0.81300
C113        C  0.07252789  0.91406486  0.14979887     0.99200
O114        O  0.08840045  0.94616197  0.15438541    -0.81300
O115        O  0.11688240  0.95018096  0.22177426    -0.84000
C116        C  0.13801117  0.94769104  0.24741748     1.03800
O117        O  0.16359170  0.92873519  0.24565690    -0.76700
O118        O  0.14898192  0.85272197  0.22592043    -0.76900
C119        C  0.13816287  0.82375997  0.20811178     1.03700
O120        O  0.17253545  0.86902646  0.13169476    -0.84200
O121        O  0.12344609  0.91890778  0.10991560    -0.81300
C122        C  0.13720779  0.95267325  0.11043657     0.99200
O123        O  0.14937346  0.96824552  0.13765138    -0.81300
O124        O  0.17446255  0.98000814  0.20234760    -0.83900
C125        C  0.20234801  0.96626652  0.20376293     1.03700
O126        O  0.20597929  0.93107496  0.19565045    -0.76800
O127        O  0.19687128  0.85350966  0.18143234    -0.76900
C128        C  0.19717751  0.85699304  0.15002614     1.03700
Cr129      Cr  0.13027835  0.87561647  0.14574513     1.93700
Cr130      Cr  0.13287188  0.95749311  0.17889704     1.93200
Cr131      Cr  0.17660394  0.89235193  0.21006388     1.39100
O132        O  0.14596725  0.90807699  0.17852960    -1.22000
O133        O  0.17262416  0.13393061  0.38182392    -0.84200
O134        O  0.12286209  0.08320010  0.36213566    -0.81300
C135        C  0.13520884  0.04878706  0.36330453     0.99200
O136        O  0.14598630  0.03331304  0.39103507    -0.81300
O137        O  0.17261828  0.02488319  0.45668651    -0.84000
C138        C  0.20091602  0.03813783  0.45818999     1.03800
O139        O  0.20540075  0.07267192  0.44840051    -0.76700
O140        O  0.19752467  0.15034015  0.43133998    -0.76900
C141        C  0.19749383  0.14650547  0.40006809     1.03700
O142        O  0.13516186  0.17829283  0.42575652    -0.84200
O143        O  0.08683972  0.12362723  0.40765930    -0.81300
C144        C  0.07184950  0.09124037  0.40344583     0.99200
O145        O  0.08690985  0.05900132  0.40858008    -0.81300
O146        O  0.11627647  0.05876091  0.47558678    -0.83900
C147        C  0.13760542  0.06120243  0.00066092     1.03700
O148        O  0.16350425  0.07938262  0.99804200    -0.76800
O149        O  0.15031814  0.15372685  0.47601503    -0.76900
C150        C  0.13842295  0.18146454  0.45776654     1.03700
Cr151      Cr  0.13048087  0.12790884  0.39676329     1.93700
Cr152      Cr  0.13123560  0.04762569  0.43269533     1.93200
Cr153      Cr  0.17702801  0.11318896  0.46122657     1.39100
O154        O  0.14593352  0.09648117  0.43023767    -1.22000
O155        O  0.33796996  0.13494510  0.35835873    -0.84200
O156        O  0.38758633  0.08614149  0.38114781    -0.81300
C157        C  0.37416787  0.05221132  0.38111098     0.99200
O158        O  0.36234348  0.03583227  0.35401079    -0.81300
O159        O  0.33780720  0.02309311  0.28809846    -0.84000
C160        C  0.30987257  0.03700621  0.28553308     1.03800
O161        O  0.30608780  0.07177889  0.29463022    -0.76700
O162        O  0.31368235  0.14963132  0.30835879    -0.76900
C163        C  0.31330515  0.14682152  0.33963580     1.03700
O164        O  0.37583366  0.17769288  0.31441845    -0.84200
O165        O  0.42431272  0.12386399  0.33494785    -0.81300
C166        C  0.43867675  0.09151571  0.34095194     0.99200
O167        O  0.42306321  0.05915385  0.33716878    -0.81300
O168        O  0.39549150  0.05391518  0.26979099    -0.83900
C169        C  0.37463262  0.05655903  0.24391404     1.03700
O170        O  0.34892117  0.07514882  0.24542679    -0.76800
O171        O  0.36233835  0.15058673  0.26475323    -0.76900
C172        C  0.37259084  0.17981206  0.28240565     1.03700
Cr173      Cr  0.38043168  0.12884070  0.34488618     1.93700
Cr174      Cr  0.37896689  0.04657165  0.31246961     1.93200
Cr175      Cr  0.33492965  0.11099436  0.28041593     1.39100
O176        O  0.36533677  0.09583403  0.31234032    -1.22000
C177        C  0.25729518  0.15286973  0.40483781     0.24700
C178        C  0.22697595  0.15449060  0.38480402    -0.23400
C179        C  0.22557213  0.15904688  0.34975654     0.19600
C180        C  0.25363508  0.15945238  0.33496654     0.24600
C181        C  0.28388145  0.15489556  0.35494879    -0.23300
C182        C  0.28520300  0.15310370  0.39015465     0.19600
F183        F  0.31363425  0.14960261  0.41079090    -0.13300
F184        F  0.26006840  0.14825490  0.43861977    -0.15700
F185        F  0.25096700  0.16234180  0.30104474    -0.15700
F186        F  0.19688747  0.16186956  0.32945459    -0.13300
C187        C  0.02043140  0.12686645  0.38354314     0.24700
C188        C  0.03726091  0.09102822  0.38920316    -0.23400
C189        C  0.02146214  0.05540978  0.37802684     0.19600
C190        C  0.48988625  0.05567405  0.36144761     0.24600
C191        C  0.47311373  0.09152081  0.35572168    -0.23300
C192        C  0.48885992  0.12711510  0.36706222     0.19600
F193        F  0.47366451  0.16244042  0.36278456    -0.13300
F194        F  0.03445050  0.16204697  0.39379228    -0.15700
F195        F  0.47586634  0.02058096  0.35095543    -0.15700
F196        F  0.03665213  0.02010436  0.38245918    -0.13300
C197        C  0.26114499  0.97472287  0.21891410     0.24700
C198        C  0.23006727  0.98785334  0.22121681    -0.23400
C199        C  0.22554874  0.01632584  0.24542956     0.19600
C200        C  0.25144516  0.03033014  0.26776402     0.24600
C201        C  0.28247273  0.01667750  0.26603214    -0.23300
C202        C  0.28717609  0.98904406  0.24114069     0.19600
F203        F  0.31694603  0.97676514  0.23750634    -0.13300
F204        F  0.26630915  0.94755534  0.19545256    -0.15700
F205        F  0.24604992  0.05749086  0.29111334    -0.15700
F206        F  0.19589566  0.02932523  0.24875507    -0.13300
C207        C  0.11311113  0.02865959  0.30393317     0.24700
C208        C  0.13613468  0.02456706  0.33279430    -0.23400
C209        C  0.15900047  0.99430285  0.33364557     0.19600
C210        C  0.15883733  0.96865280  0.30650433     0.24600
C211        C  0.13553998  0.97208130  0.27768416    -0.23300
C212        C  0.11273805  0.00265460  0.27667865     0.19600
F213        F  0.09051660  0.00828791  0.24898987    -0.13300
F214        F  0.09052854  0.05722341  0.30232501    -0.14900
F215        F  0.18205208  0.94085106  0.30843058    -0.15700
F216        F  0.18204403  0.98961500  0.36081606    -0.13300
C217        C  0.10925033  0.98372046  0.05796181     0.24700
C218        C  0.13750544  0.97695807  0.08031211    -0.23400
C219        C  0.16478231  0.00018908  0.07799132     0.19600
C220        C  0.16399630  0.02960486  0.05373473     0.24600
C221        C  0.13596929  0.03604043  0.03051952    -0.23300
C222        C  0.10846463  0.01290667  0.03313432     0.19600
F223        F  0.08078536  0.01841113  0.01171618    -0.13300
F224        F  0.08203280  0.96346887  0.06122771    -0.15700
F225        F  0.19122720  0.05084652  0.05255629    -0.15700
F226        F  0.19235722  0.99461663  0.09966654    -0.13300
C227        C  0.28544372  0.01511092  0.49644214     0.24700
C228        C  0.28061168  0.98528530  0.02003624    -0.23400
C229        C  0.24932224  0.97209926  0.02210388     0.19600
C230        C  0.22332272  0.98751964  0.00064030     0.24600
C231        C  0.22826264  0.01688464  0.47681179    -0.23300
C232        C  0.25954438  0.03020943  0.47493478     0.19600
F233        F  0.26523974  0.05801392  0.45217716    -0.13300
F234        F  0.31521969  0.02828973  0.49316070    -0.15700
F235        F  0.19348521  0.97426217  0.00361242    -0.15700
F236        F  0.24386247  0.94421743  0.04489774    -0.13300
C237        C  0.40233133  0.99302946  0.45946994     0.24700
C238        C  0.37415468  0.97190036  0.46337121    -0.23400
C239        C  0.34583930  0.97990235  0.44100814     0.19600
C240        C  0.34565248  0.00829938  0.41588198     0.24600
C241        C  0.37369553  0.02907727  0.41195795    -0.23300
C242        C  0.40207513  0.02132915  0.43390740     0.19600
F243        F  0.42981435  0.03974226  0.42958229    -0.13300
F244        F  0.43025091  0.98608108  0.48011444    -0.15700
F245        F  0.31784667  0.01547376  0.39505317    -0.15700
F246        F  0.31784895  0.96119050  0.44388028    -0.13300
C247        C  0.35017424  0.00386957  0.16131585     0.24700
C248        C  0.37481255  0.97621050  0.16112486    -0.23400
C249        C  0.40067061  0.97649170  0.18756712     0.19600
C250        C  0.40180188  0.00416882  0.21373074     0.24600
C251        C  0.37706056  0.03203560  0.21382381    -0.23300
C252        C  0.35144820  0.03169377  0.18690696     0.19600
F253        F  0.32695250  0.05767702  0.18549194    -0.13300
F254        F  0.32445700  0.00405696  0.13647853    -0.15700
F255        F  0.42697049  0.00320436  0.23909983    -0.15700
F256        F  0.42524161  0.95088762  0.18757254    -0.13300
C257        C  0.25646837  0.84186062  0.15475662     0.24700
C258        C  0.22675784  0.84921416  0.13478858    -0.23400
C259        C  0.22611651  0.85375638  0.09969443     0.19600
C260        C  0.25439827  0.85298547  0.08558402     0.24600
C261        C  0.28424564  0.84789438  0.10578310    -0.23300
C262        C  0.28486169  0.84138609  0.14056588     0.19600
F263        F  0.31306034  0.83569389  0.16103195    -0.13300
F264        F  0.25848705  0.83692208  0.18849964    -0.15700
F265        F  0.25254539  0.86015433  0.05215101    -0.15700
F266        F  0.19830362  0.86092340  0.07899696    -0.13300
C267        C  0.02400446  0.88045162  0.11790484     0.24700
C268        C  0.03836940  0.91463616  0.13399976    -0.23400
C269        C  0.02054759  0.94987071  0.13213098     0.19600
C270        C  0.48867639  0.95026517  0.11620851     0.24600
C271        C  0.47397916  0.91554129  0.10132485    -0.23300
C272        C  0.49241112  0.88102388  0.10154259     0.19600
F273        F  0.47993203  0.84753621  0.08581518    -0.13300
F274        F  0.04069683  0.84636762  0.11723156    -0.15700
F275        F  0.47205799  0.98450187  0.11628457    -0.15700
F276        F  0.03372116  0.98398136  0.14608965    -0.13300
C277        C  0.12290351  0.28926330  0.47699272     0.24700
C278        C  0.12223493  0.28810306  0.01214097    -0.23400
C279        C  0.12431065  0.25118367  0.02811287     0.19600
C280        C  0.12824497  0.21671454  0.01000804     0.24600
C281        C  0.13031438  0.21799871  0.47530539    -0.23300
C282        C  0.12677098  0.25464680  0.45888720     0.19600
F283        F  0.12774204  0.25730366  0.42542025    -0.13300
F284        F  0.12020906  0.32408249  0.45996254    -0.15700
F285        F  0.12969213  0.18174266  0.02679295    -0.15700
F286        F  0.12174301  0.24809258  0.06120873    -0.13300
C287        C  0.38052338  0.25024823  0.21080437     0.24700
C288        C  0.37926395  0.28725247  0.22627598    -0.23400
C289        C  0.37734007  0.28868812  0.26104598     0.19600
C290        C  0.37686690  0.25393392  0.27981245     0.24600
C291        C  0.37784367  0.21690754  0.26426029    -0.23300
C292        C  0.38005402  0.21553813  0.22954398     0.19600
F293        F  0.38199823  0.18045021  0.21348411    -0.13300
F294        F  0.38319781  0.24750882  0.17771503    -0.15700
F295        F  0.37458338  0.25664340  0.31298863    -0.15700
F296        F  0.37570311  0.32384976  0.27708774    -0.13300
C297        C  0.23618138  0.37814070  0.10486110     0.24700
C298        C  0.21859789  0.41353638  0.10254090    -0.23400
C299        C  0.23397432  0.44852682  0.11603707     0.19600
C300        C  0.26584330  0.44795380  0.13183458     0.24600
C301        C  0.28318676  0.41235469  0.13478755    -0.23300
C302        C  0.26792348  0.37751688  0.12086545     0.19600
F303        F  0.28382741  0.34266047  0.12195660    -0.13300
F304        F  0.22275228  0.34381480  0.09163517    -0.15700
F305        F  0.27956057  0.48239897  0.14444181    -0.15700
F306        F  0.21810066  0.48342583  0.11468093    -0.13300
C307        C  0.47050674  0.34300979  0.09910962     0.24700
C308        C  0.47167089  0.34577683  0.13424107    -0.23400
C309        C  0.00188544  0.34559122  0.15465237     0.19600
C310        C  0.03001817  0.34620864  0.14021849     0.24600
C311        C  0.02883050  0.34682161  0.10498592    -0.23300
C312        C  0.49864454  0.34354073  0.08465229     0.19600
F313        F  0.49608060  0.34331315  0.05064745    -0.13300
F314        F  0.44197363  0.34148084  0.07836738    -0.15700
F315        F  0.05848065  0.34812191  0.16105594    -0.15700
F316        F  0.00438886  0.34748692  0.18861955    -0.13300
C317        C  0.37301742  0.74831793  0.02911584     0.24700
C318        C  0.38099191  0.78532670  0.01687596    -0.23400
C319        C  0.39129883  0.78778089  0.48560673     0.19600
C320        C  0.39203167  0.75368086  0.46587683     0.24600
C321        C  0.38233815  0.71697669  0.47726446    -0.23300
C322        C  0.37343147  0.71429829  0.00928943     0.19600
F323        F  0.36482659  0.67914176  0.02179603    -0.13300
F324        F  0.36350591  0.74518655  0.05972166    -0.15700
F325        F  0.40353260  0.75633351  0.43627913    -0.15700
F326        F  0.40096001  0.82279235  0.47378633    -0.13300
C327        C  0.35550649  0.52258842  0.30519364     0.24700
C328        C  0.38322961  0.52814325  0.32885740    -0.23400
C329        C  0.41047214  0.50559641  0.32608895     0.19600
C330        C  0.41027582  0.47825826  0.30014824     0.24600
C331        C  0.38270960  0.47275898  0.27591964    -0.23300
C332        C  0.35521277  0.49514265  0.27892650     0.19600
F333        F  0.32790519  0.49037636  0.25663580    -0.13300
F334        F  0.32829948  0.54227197  0.30844096    -0.15700
F335        F  0.43752935  0.45781678  0.29861370    -0.15700
F336        F  0.43753555  0.50986052  0.34886873    -0.13300
C337        C  0.35556150  0.50404263  0.02663957     0.24700
C338        C  0.38203119  0.52984505  0.02606178    -0.23400
C339        C  0.40895737  0.52589300  0.05113293     0.19600
C340        C  0.40956347  0.49711288  0.07579425     0.24600
C341        C  0.38295560  0.47223247  0.07690934    -0.23300
C342        C  0.35605731  0.47553063  0.05199798     0.19600
F343        F  0.32976605  0.45245011  0.05302836    -0.13300
F344        F  0.32877978  0.50847547  0.50382891    -0.15700
F345        F  0.43623234  0.49394782  0.09919923    -0.15700
F346        F  0.43533673  0.54926207  0.05165432    -0.13300
C347        C  0.99598625  0.47456374  0.52032679     0.24700
C348        C  0.02729415  0.48879091  0.01985800    -0.23400
C349        C  0.03237885  0.51800418  0.99635410     0.19600
C350        C  0.50695027  0.53278004  0.47397042     0.24600
C351        C  0.47577334  0.51775497  0.47397200    -0.23300
C352        C  0.47055242  0.48859476  0.49748552     0.19600
F353        F  0.44071392  0.47443954  0.49924285    -0.13300
F354        F  0.99000088  0.44662246  0.54287367    -0.15700
F355        F  0.51293121  0.56164410  0.45221497    -0.15700
F356        F  0.06221999  0.53189643  0.99414901    -0.13300
C357        C  0.13648550  0.74927466  0.21226727     0.24700
C358        C  0.13217488  0.78660416  0.22614481    -0.23400
C359        C  0.12580601  0.78853521  0.25960545     0.19600
C360        C  0.12375061  0.75411400  0.27859262     0.24600
C361        C  0.12741262  0.71678378  0.26454391    -0.23300
C362        C  0.13399948  0.71477721  0.23113254     0.19600
F363        F  0.13834999  0.67926930  0.21667783    -0.13300
F364        F  0.14424715  0.74613264  0.18088913    -0.15700
F365        F  0.11691668  0.75734004  0.31031803    -0.15700
F366        F  0.12112714  0.82394943  0.27400527    -0.13300
C367        C  0.14738409  0.49606082  0.46063977     0.24700
C368        C  0.12046698  0.47150346  0.46254948    -0.23400
C369        C  0.09375946  0.47422742  0.43701722     0.19600
C370        C  0.09354315  0.50126992  0.41097570     0.24600
C371        C  0.12010988  0.52611123  0.40939359    -0.23300
C372        C  0.14714764  0.52305689  0.43417683     0.19600
F373        F  0.17382260  0.54499708  0.43203372    -0.13300
F374        F  0.17404173  0.49425826  0.98456546    -0.15700
F375        F  0.06714063  0.50316602  0.38710107    -0.15700
F376        F  0.06723284  0.45132923  0.43734396    -0.13300
C377        C  0.09450174  0.50228967  0.16150456     0.24700
C378        C  0.11927668  0.47477276  0.16140698    -0.23400
C379        C  0.14533870  0.47561821  0.18756540     0.19600
C380        C  0.14672430  0.50399544  0.21317950     0.24600
C381        C  0.12215737  0.53221725  0.21281034    -0.23300
C382        C  0.09618565  0.53108046  0.18634830     0.19600
F383        F  0.07188436  0.55740593  0.18456102    -0.13300
F384        F  0.06849170  0.50168422  0.13701903    -0.15700
F385        F  0.17200393  0.50343509  0.23844214    -0.15700
F386        F  0.16995442  0.45006090  0.18769663    -0.13300
C387        C  0.23893717  0.62350310  0.35433210     0.24700
C388        C  0.22004061  0.58901500  0.35459227    -0.23400
C389        C  0.23368337  0.55548591  0.37202556     0.19600
C390        C  0.26544604  0.55646411  0.38842251     0.24600
C391        C  0.28437808  0.59090389  0.38772362    -0.23300
C392        C  0.27052240  0.62451477  0.37078838     0.19600
F393        F  0.28779461  0.65834702  0.36916133    -0.13300
F394        F  0.22703537  0.65644138  0.33774967    -0.15700
F395        F  0.27747486  0.52380831  0.40539357    -0.15700
F396        F  0.21615416  0.52190786  0.37398766    -0.13300
C397        C  0.48771564  0.61216038  0.37613888     0.24700
C398        C  0.47532781  0.64770818  0.38659844    -0.23400
C399        C  0.49115406  0.68358103  0.38163093     0.19600
C400        C  0.01868375  0.68366485  0.36568246     0.24600
C401        C  0.03071759  0.64781272  0.35501148    -0.23300
C402        C  0.01530801  0.61215811  0.36112556     0.19600
F403        F  0.02729474  0.57694620  0.35289728    -0.13300
F404        F  0.47315588  0.57705983  0.38085000    -0.15700
F405        F  0.03378926  0.71842000  0.36118061    -0.15700
F406        F  0.47969469  0.71830984  0.39163378    -0.13300
C407        C  0.03284163  0.48649938  0.24153604     0.24700
C408        C  0.02809312  0.51616048  0.26477191    -0.23400
C409        C  0.99702243  0.53068194  0.26506485     0.19600
C410        C  0.47140037  0.51647161  0.24228982     0.24600
C411        C  0.47605053  0.48658892  0.21928186    -0.23300
C412        C  0.50708194  0.47185643  0.21902665     0.19600
F413        F  0.51254273  0.44290014  0.19720736    -0.13300
F414        F  0.06250342  0.47236322  0.23976233    -0.15700
F415        F  0.44182558  0.53102768  0.24382889    -0.15700
F416        F  0.99128767  0.55896176  0.28732034    -0.13300
O417        O  0.08570597  0.63403644  0.85895979    -0.84200
O418        O  0.13461177  0.58392535  0.87969713    -0.81300
C419        C  0.12101028  0.55000059  0.87915325     0.99200
O420        O  0.10908245  0.53419037  0.85188234    -0.81300
O421        O  0.08352220  0.52316381  0.78625528    -0.84000
C422        C  0.05548104  0.53678211  0.78414064     1.03800
O423        O  0.05166372  0.57158541  0.79332909    -0.76700
O424        O  0.06062233  0.64936252  0.80923972    -0.76900
C425        C  0.06075220  0.64523537  0.84053898     1.03700
O426        O  0.12361539  0.67704582  0.81425585    -0.84200
O427        O  0.17145322  0.62193047  0.83362055    -0.81300
C428        C  0.18554058  0.58932245  0.83928208     0.99200
O429        O  0.16958511  0.55726613  0.83507270    -0.81300
O430        O  0.14110042  0.55511434  0.76788175    -0.83900
C431        C  0.11989260  0.55745798  0.74235085     1.03700
O432        O  0.09421704  0.57601555  0.74419707    -0.76800
O433        O  0.10832168  0.65123508  0.76429072    -0.76900
C434        C  0.12008492  0.67960760  0.78219282     1.03700
Cr435      Cr  0.12775297  0.62755245  0.84426274     1.93700
Cr436      Cr  0.12510504  0.54603848  0.81045254     1.93200
Cr437      Cr  0.08092125  0.61128209  0.77996627     1.39100
O438        O  0.11165084  0.59528588  0.81143317    -1.22000
O439        O  0.42034682  0.63310785  0.88168673    -0.84200
O440        O  0.36972963  0.58445006  0.85966902    -0.81300
C441        C  0.38284014  0.55056412  0.85976494     0.99200
O442        O  0.39453958  0.53455761  0.88689756    -0.81300
O443        O  0.42022475  0.52315258  0.95222076    -0.84000
C444        C  0.44830340  0.53741147  0.95467534     1.03800
O445        O  0.45225341  0.57230830  0.94578277    -0.76700
O446        O  0.44415474  0.65003543  0.93160412    -0.76900
C447        C  0.44499683  0.64498837  0.90058984     1.03700
O448        O  0.38357622  0.67721308  0.92623025    -0.84200
O449        O  0.33402266  0.62289478  0.90623244    -0.81300
C450        C  0.31909440  0.59042541  0.90100839     0.99200
O451        O  0.33426070  0.55802243  0.90462136    -0.81300
O452        O  0.36288797  0.55390558  0.97134897    -0.83900
C453        C  0.38445946  0.55617528  0.49701647     1.03700
O454        O  0.41027077  0.57517626  0.49542841    -0.76800
O455        O  0.39606406  0.65000145  0.97591214    -0.76900
C456        C  0.38669128  0.67935288  0.95835046     1.03700
Cr457      Cr  0.37785006  0.62777295  0.89569020     1.93700
Cr458      Cr  0.37870703  0.54590899  0.92856012     1.93200
Cr459      Cr  0.42344196  0.61100426  0.96006486     1.39100
O460        O  0.39280444  0.59517214  0.92829412    -1.22000
O461        O  0.38054461  0.32543209  0.67554988    -0.84200
O462        O  0.33196209  0.37914510  0.65483047    -0.81300
C463        C  0.31771294  0.41165605  0.64922821     0.99200
O464        O  0.33341745  0.44393090  0.65325059    -0.81300
O465        O  0.36310466  0.44970434  0.72022216    -0.84000
C466        C  0.38466151  0.44753807  0.74553861     1.03800
O467        O  0.41025581  0.42903463  0.74325156    -0.76700
O468        O  0.39499663  0.35341783  0.72479645    -0.76900
C469        C  0.38447579  0.32388259  0.70763849     1.03700
O470        O  0.41779837  0.36660809  0.62991155    -0.84200
O471        O  0.36818369  0.41568190  0.60775913    -0.81300
C472        C  0.38171773  0.44950598  0.60762110     0.99200
O473        O  0.39335222  0.46625178  0.63453771    -0.81300
O474        O  0.42014721  0.47948989  0.69903579    -0.83900
C475        C  0.44811372  0.46565789  0.70083264     1.03700
O476        O  0.45166846  0.43047712  0.69252992    -0.76800
O477        O  0.44201496  0.35214308  0.67996867    -0.76900
C478        C  0.44232470  0.35449488  0.64867866     1.03700
Cr479      Cr  0.37567067  0.37360846  0.64436349     1.93700
Cr480      Cr  0.37812341  0.45624805  0.67659221     1.93200
Cr481      Cr  0.42250802  0.39208573  0.70797084     1.39100
O482        O  0.39152431  0.40699206  0.67650794    -1.22000
O483        O  0.12022312  0.32660765  0.56276229    -0.84200
O484        O  0.16916006  0.38077345  0.58352069    -0.81300
C485        C  0.18386359  0.41330668  0.58897198     0.99200
O486        O  0.16848872  0.44547204  0.58543914    -0.81300
O487        O  0.13940661  0.45022070  0.51841190    -0.84000
C488        C  0.11806779  0.44795020  0.99329933     1.03800
O489        O  0.09206421  0.42961059  0.99541877    -0.76700
O490        O  0.10537362  0.35380633  0.51343042    -0.76900
C491        C  0.11622147  0.32472207  0.53062707     1.03700
O492        O  0.08312498  0.36798969  0.60829295    -0.84200
O493        O  0.13300816  0.41760936  0.63052578    -0.81300
C494        C  0.11991908  0.45145482  0.63051625     0.99200
O495        O  0.10859318  0.46783341  0.60345368    -0.81300
O496        O  0.08276461  0.48060719  0.53896155    -0.83900
C497        C  0.05459111  0.46707223  0.53743085     1.03700
O498        O  0.05036394  0.43190998  0.54561240    -0.76800
O499        O  0.05839348  0.35353283  0.55832563    -0.76900
C500        C  0.05834942  0.35580737  0.58966450     1.03700
Cr501      Cr  0.12535075  0.37508805  0.59395538     1.93700
Cr502      Cr  0.12412641  0.45739326  0.56172764     1.93200
Cr503      Cr  0.07876400  0.39304317  0.53032315     1.39100
O504        O  0.10997418  0.40813275  0.56177828    -1.22000
O505        O  0.37717054  0.82584129  0.56668808    -0.84200
O506        O  0.42514246  0.88221768  0.58493310    -0.81300
C507        C  0.43930843  0.91531143  0.58889778     0.99200
O508        O  0.42331687  0.94701858  0.58528410    -0.81300
O509        O  0.39392686  0.94973404  0.51866031    -0.84000
C510        C  0.37238774  0.94572924  0.99308137     1.03800
O511        O  0.34716881  0.92570316  0.99502607    -0.76700
O512        O  0.36389775  0.85149660  0.51648122    -0.76900
C513        C  0.37454193  0.82306495  0.53471401     1.03700
O514        O  0.33932347  0.86841927  0.61074901    -0.84200
O515        O  0.38905982  0.91962258  0.63147075    -0.81300
C516        C  0.37546187  0.95314142  0.63099855     0.99200
O517        O  0.36307188  0.96816289  0.60369017    -0.81300
O518        O  0.33644297  0.97830664  0.53892596    -0.83900
C519        C  0.30849081  0.96382789  0.53690554     1.03700
O520        O  0.30473955  0.92826667  0.54436669    -0.76800
O521        O  0.31567954  0.85132933  0.56081145    -0.76900
C522        C  0.31487713  0.85555250  0.59204695     1.03700
Cr523      Cr  0.38158215  0.87583113  0.59609375     1.93700
Cr524      Cr  0.37850845  0.95714067  0.56188587     1.93200
Cr525      Cr  0.33520944  0.89020873  0.53140505     1.39100
O526        O  0.36547504  0.90753033  0.56300252    -1.22000
O527        O  0.13452113  0.82587306  0.67585213    -0.84200
O528        O  0.08664127  0.88134939  0.65514917    -0.81300
C529        C  0.07290423  0.91416643  0.64909204     0.99200
O530        O  0.08892159  0.94612775  0.65386021    -0.81300
O531        O  0.11690112  0.95022218  0.72143118    -0.84000
C532        C  0.13783370  0.94751204  0.74723906     1.03800
O533        O  0.16333596  0.92829401  0.74568574    -0.76700
O534        O  0.14881515  0.85231442  0.72578395    -0.76900
C535        C  0.13806277  0.82336678  0.70792920     1.03700
O536        O  0.17302806  0.86836174  0.63194397    -0.84200
O537        O  0.12426252  0.91847669  0.60973529    -0.81300
C538        C  0.13813450  0.95217108  0.61032489     0.99200
O539        O  0.15018525  0.96771962  0.63759950    -0.81300
O540        O  0.17474189  0.97960016  0.70252008    -0.83900
C541        C  0.20261810  0.96575677  0.70432521     1.03700
O542        O  0.20625646  0.93056773  0.69620796    -0.76800
O543        O  0.19717024  0.85301706  0.68181178    -0.76900
C544        C  0.19757362  0.85628669  0.65039487     1.03700
Cr545      Cr  0.13064052  0.87525155  0.64558493     1.93700
Cr546      Cr  0.13327852  0.95722019  0.67869602     1.93200
Cr547      Cr  0.17663136  0.89189535  0.71023448     1.39100
O548        O  0.14620734  0.90769945  0.67847960    -1.22000
O549        O  0.17252470  0.13375431  0.88181386    -0.84200
O550        O  0.12271470  0.08305921  0.86208386    -0.81300
C551        C  0.13507249  0.04864656  0.86325138     0.99200
O552        O  0.14594707  0.03325973  0.89099943    -0.81300
O553        O  0.17246156  0.02481575  0.95679209    -0.84000
C554        C  0.20075723  0.03811463  0.95837229     1.03800
O555        O  0.20520210  0.07260514  0.94848279    -0.76700
O556        O  0.19734105  0.15022460  0.93135200    -0.76900
C557        C  0.19735365  0.14638322  0.90009131     1.03700
O558        O  0.13509120  0.17829400  0.92565834    -0.84200
O559        O  0.08673618  0.12355894  0.90760158    -0.81300
C560        C  0.07175707  0.09115657  0.90342183     0.99200
O561        O  0.08682403  0.05891576  0.90846859    -0.81300
O562        O  0.11599463  0.05861229  0.97548397    -0.83900
C563        C  0.13797469  0.06111675  0.50069509     1.03700
O564        O  0.16385280  0.07934082  0.49806061    -0.76800
O565        O  0.15011841  0.15372914  0.97593551    -0.76900
C566        C  0.13836578  0.18152276  0.95767160     1.03700
Cr567      Cr  0.13036643  0.12781570  0.89670650     1.93700
Cr568      Cr  0.13110330  0.04753149  0.93264813     1.93200
Cr569      Cr  0.17680874  0.11313636  0.96122672     1.39100
O570        O  0.14576632  0.09640862  0.93021464    -1.22000
O571        O  0.33798724  0.13576553  0.85902566    -0.84200
O572        O  0.38739605  0.08680773  0.88205209    -0.81300
C573        C  0.37375872  0.05302272  0.88213567     0.99200
O574        O  0.36180194  0.03662927  0.85509812    -0.81300
O575        O  0.33747257  0.02342588  0.78928877    -0.84000
C576        C  0.30955983  0.03741412  0.78653195     1.03800
O577        O  0.30579591  0.07229869  0.79537450    -0.76700
O578        O  0.31379296  0.15017813  0.80891380    -0.76900
C579        C  0.31335744  0.14752685  0.84018795     1.03700
O580        O  0.37597244  0.17797714  0.81489073    -0.84200
O581        O  0.42419214  0.12390820  0.83557541    -0.81300
C582        C  0.43843792  0.09152673  0.84178853     0.99200
O583        O  0.42271375  0.05923781  0.83832800    -0.81300
O584        O  0.39531018  0.05360724  0.77096474    -0.83900
C585        C  0.37460291  0.05647326  0.74498462     1.03700
O586        O  0.34888292  0.07510767  0.74638074    -0.76800
O587        O  0.36248460  0.15058146  0.76535134    -0.76900
C588        C  0.37279585  0.17988838  0.78287023     1.03700
Cr589      Cr  0.38039542  0.12929476  0.84557536     1.93700
Cr590      Cr  0.37862472  0.04679548  0.81361147     1.93200
Cr591      Cr  0.33489083  0.11124968  0.78114051     1.39100
O592        O  0.36518506  0.09613880  0.81318625    -1.22000
C593        C  0.25710635  0.15355824  0.90507653     0.24700
C594        C  0.22683273  0.15452118  0.88489488    -0.23400
C595        C  0.22551455  0.15870823  0.84982539     0.19600
C596        C  0.25364517  0.15947446  0.83518811     0.24600
C597        C  0.28386353  0.15553791  0.85533304    -0.23300
C598        C  0.28508501  0.15408704  0.89053133     0.19600
F599        F  0.31349836  0.15120648  0.91129698    -0.13300
F600        F  0.25979789  0.14931482  0.93888850    -0.15700
F601        F  0.25109427  0.16204868  0.80125683    -0.15700
F602        F  0.19687414  0.16076557  0.82935153    -0.13300
C603        C  0.02023621  0.12674464  0.88411560     0.24700
C604        C  0.03714764  0.09093117  0.88936868    -0.23400
C605        C  0.02136914  0.05534516  0.87805072     0.19600
C606        C  0.48970511  0.05562891  0.86174832     0.24600
C607        C  0.47287776  0.09146618  0.85639263    -0.23300
C608        C  0.48860006  0.12701474  0.86787585     0.19600
F609        F  0.47330055  0.16229940  0.86402304    -0.13300
F610        F  0.03422571  0.16187859  0.89455382    -0.15700
F611        F  0.47566139  0.02058643  0.85113369    -0.15700
F612        F  0.03666202  0.02007760  0.88205991    -0.13300
C613        C  0.26134933  0.97377442  0.72058423     0.24700
C614        C  0.23022808  0.98731203  0.72208678    -0.23400
C615        C  0.22546249  0.01647425  0.74565760     0.19600
C616        C  0.25116469  0.03087487  0.76806723     0.24600
C617        C  0.28223493  0.01689652  0.76705701    -0.23300
C618        C  0.28717104  0.98848600  0.74285647     0.19600
F619        F  0.31700198  0.97583019  0.73987962    -0.13300
F620        F  0.26678592  0.94587368  0.69783019    -0.15700
F621        F  0.24553931  0.05876693  0.79072915    -0.15700
F622        F  0.19575249  0.02989310  0.74822872    -0.13300
C623        C  0.11301044  0.02862359  0.80377661     0.24700
C624        C  0.13590871  0.02433863  0.83273279    -0.23400
C625        C  0.15859776  0.99385825  0.83363571     0.19600
C626        C  0.15842010  0.96823910  0.80646512     0.24600
C627        C  0.13528537  0.97189592  0.77752618    -0.23300
C628        C  0.11263863  0.00265954  0.77647074     0.19600
F629        F  0.09058531  0.00852622  0.74868324    -0.13300
F630        F  0.09056055  0.05735531  0.80211158    -0.14900
F631        F  0.18149034  0.94024671  0.80848074    -0.15700
F632        F  0.18150462  0.98891713  0.86088877    -0.13300
C633        C  0.11050238  0.98209943  0.55719817     0.24700
C634        C  0.13850978  0.97645424  0.58019300    -0.23400
C635        C  0.16539167  0.00060573  0.57832140     0.19600
C636        C  0.16432493  0.03012407  0.55410976     0.24600
C637        C  0.13648820  0.03563665  0.53040846    -0.23300
C638        C  0.10947948  0.01131146  0.53238201     0.19600
F639        F  0.08207066  0.01557960  0.51028800    -0.13300
F640        F  0.08368489  0.96065439  0.55975375    -0.15700
F641        F  0.19111768  0.05242794  0.55348798    -0.15700
F642        F  0.19284090  0.99581298  0.60036264    -0.13300
C643        C  0.28527845  0.01529998  0.99709397     0.24700
C644        C  0.28079598  0.98572289  0.51994007    -0.23400
C645        C  0.24952112  0.97275961  0.52232836     0.19600
C646        C  0.22348177  0.98797877  0.50079993     0.24600
C647        C  0.22812961  0.01695338  0.97710443    -0.23300
C648        C  0.25940937  0.03071063  0.97573060     0.19600
F649        F  0.26515728  0.05922957  0.95359970    -0.13300
F650        F  0.31505185  0.02882506  0.99419427    -0.15700
F651        F  0.19363782  0.97509551  0.50415997    -0.15700
F652        F  0.24412215  0.94531677  0.54551271    -0.13300
C653        C  0.40197192  0.99309264  0.95995063     0.24700
C654        C  0.37382028  0.97176705  0.96359116    -0.23400
C655        C  0.34543720  0.98021693  0.94149787     0.19600
C656        C  0.34519297  0.00913474  0.91680012     0.24600
C657        C  0.37326093  0.02992404  0.91297835    -0.23300
C658        C  0.40167565  0.02185018  0.93475695     0.19600
F659        F  0.42941989  0.04033738  0.93056304    -0.13300
F660        F  0.42990867  0.98588585  0.98048413    -0.15700
F661        F  0.31733893  0.01668291  0.89617644    -0.15700
F662        F  0.31745535  0.96137999  0.94419220    -0.13300
C663        C  0.35091230  0.00559831  0.66146682     0.24700
C664        C  0.37519594  0.97738989  0.66141866    -0.23400
C665        C  0.40071237  0.97690012  0.68823104     0.19600
C666        C  0.40175243  0.00415306  0.71470153     0.24600
C667        C  0.37727013  0.03238826  0.71472263    -0.23300
C668        C  0.35211457  0.03298562  0.68737564     0.19600
F669        F  0.32799600  0.05953572  0.68579996    -0.13300
F670        F  0.32557380  0.00673548  0.63622988    -0.15700
F671        F  0.42653688  0.00238341  0.74044512    -0.15700
F672        F  0.42503568  0.95090151  0.68836306    -0.13300
C673        C  0.25696808  0.84146849  0.65526320     0.24700
C674        C  0.22719705  0.84833863  0.63525427    -0.23400
C675        C  0.22651301  0.85244447  0.60011177     0.19600
C676        C  0.25482134  0.85219382  0.58603829     0.24600
C677        C  0.28473635  0.84792702  0.60629230    -0.23300
C678        C  0.28539970  0.84146466  0.64110142     0.19600
F679        F  0.31365159  0.83628770  0.66160018    -0.13300
F680        F  0.25898715  0.83654045  0.68900995    -0.15700
F681        F  0.25286729  0.85908166  0.55254932    -0.15700
F682        F  0.19859448  0.85867639  0.57931585    -0.13300
C683        C  0.02467457  0.88186557  0.61549867     0.24700
C684        C  0.03879716  0.91516019  0.63321451    -0.23400
C685        C  0.02075595  0.95008679  0.63304672     0.19600
C686        C  0.48880581  0.95082378  0.61737173     0.24600
C687        C  0.47428150  0.91678546  0.60108161    -0.23300
C688        C  0.49297169  0.88278506  0.59945417     0.19600
F689        F  0.48062261  0.85021686  0.58216661    -0.13300
F690        F  0.04174282  0.84843629  0.61289159    -0.15700
F691        F  0.47190767  0.98458329  0.61917151    -0.15700
F692        F  0.03377500  0.98345469  0.64854125    -0.13300
C693        C  0.12351020  0.28949637  0.97714590     0.24700
C694        C  0.12214277  0.28803560  0.51209202    -0.23400
C695        C  0.12459798  0.25120921  0.52821898     0.19600
C696        C  0.12850861  0.21669486  0.51016686     0.24600
C697        C  0.13040464  0.21813228  0.97522653    -0.23300
C698        C  0.12739339  0.25491402  0.95897434     0.19600
F699        F  0.12894435  0.25772742  0.92563343    -0.13300
F700        F  0.12132343  0.32444882  0.96030747    -0.15700
F701        F  0.13028336  0.18180061  0.52708145    -0.15700
F702        F  0.12246579  0.24825268  0.56142686    -0.13300
C703        C  0.38101651  0.24987582  0.71096679     0.24700
C704        C  0.37977981  0.28699009  0.72627166    -0.23400
C705        C  0.37789020  0.28861737  0.76105160     0.19600
C706        C  0.37729581  0.25397788  0.77994966     0.24600
C707        C  0.37819050  0.21684615  0.76455947    -0.23300
C708        C  0.38047362  0.21526334  0.72986109     0.19600
F709        F  0.38241295  0.18005868  0.71397661    -0.13300
F710        F  0.38372868  0.24694034  0.67790023    -0.15700
F711        F  0.37495285  0.25690919  0.81309870    -0.15700
F712        F  0.37639015  0.32387162  0.77698967    -0.13300
C713        C  0.23661392  0.37874365  0.60296887     0.24700
C714        C  0.21859225  0.41365976  0.60261606    -0.23400
C715        C  0.23348738  0.44792771  0.61812670     0.19600
C716        C  0.26538308  0.44710865  0.63385321     0.24600
C717        C  0.28319607  0.41196446  0.63472491    -0.23300
C718        C  0.26839710  0.37786871  0.61886548     0.19600
F719        F  0.28485393  0.34364675  0.61783770    -0.13300
F720        F  0.22359105  0.34520877  0.58777993    -0.15700
F721        F  0.27865869  0.48078398  0.64854369    -0.15700
F722        F  0.21706443  0.48221531  0.61893995    -0.13300
C723        C  0.47065711  0.34282616  0.59881336     0.24700
C724        C  0.47182041  0.34576240  0.63392979    -0.23400
C725        C  0.00202099  0.34567297  0.65436959     0.19600
C726        C  0.03014828  0.34616864  0.63996692     0.24600
C727        C  0.02896791  0.34664767  0.60474762    -0.23300
C728        C  0.49880364  0.34325452  0.58438368     0.19600
F729        F  0.49627556  0.34282262  0.55038201    -0.13300
F730        F  0.44212990  0.34125828  0.57806056    -0.15700
F731        F  0.05860094  0.34813293  0.66082048    -0.15700
F732        F  0.00451972  0.34784281  0.68832445    -0.13300
C733        C  0.37238606  0.74897274  0.52928363     0.24700
C734        C  0.38098301  0.78589792  0.51733785    -0.23400
C735        C  0.39087802  0.78731424  0.98493280     0.19600
C736        C  0.39159710  0.75321087  0.96521005     0.24600
C737        C  0.38231299  0.71643586  0.97683712    -0.23300
C738        C  0.37289688  0.71491873  0.50946192     0.19600
F739        F  0.36381504  0.67982548  0.52168329    -0.13300
F740        F  0.36215744  0.74599482  0.55954696    -0.15700
F741        F  0.40266033  0.75595339  0.93537574    -0.15700
F742        F  0.40014113  0.82241251  0.97290822    -0.13300
C743        C  0.35587590  0.52231602  0.80494679     0.24700
C744        C  0.38341580  0.52715150  0.82897482    -0.23400
C745        C  0.41039712  0.50396852  0.82652451     0.19600
C746        C  0.41012432  0.47674015  0.80049906     0.24600
C747        C  0.38275706  0.47201093  0.77587738    -0.23300
C748        C  0.35551429  0.49500666  0.77859208     0.19600
F749        F  0.32842042  0.49109094  0.75586043    -0.13300
F750        F  0.32888591  0.54262986  0.80787440    -0.15700
F751        F  0.43714135  0.45569934  0.79924169    -0.15700
F752        F  0.43728843  0.50755321  0.84964717    -0.13300
C753        C  0.35544336  0.50516431  0.52714859     0.24700
C754        C  0.38235394  0.53012126  0.52621574    -0.23400
C755        C  0.40949808  0.52528510  0.55088098     0.19600
C756        C  0.40987779  0.49643102  0.57547598     0.24600
C757        C  0.38292265  0.47223210  0.57681539    -0.23300
C758        C  0.35578289  0.47647298  0.55234650     0.19600
F759        F  0.32911537  0.45421831  0.55373398    -0.13300
F760        F  0.32922528  0.50625769  0.00276679    -0.15700
F761        F  0.43665727  0.49254409  0.59862941    -0.15700
F762        F  0.43626653  0.54786003  0.55107076    -0.13300
C763        C  0.99602182  0.47491068  0.02101389     0.24700
C764        C  0.02725926  0.48872433  0.51960402    -0.23400
C765        C  0.03241080  0.51844012  0.49655113     0.19600
C766        C  0.50683718  0.53208420  0.97373656     0.24600
C767        C  0.47564824  0.51733858  0.97418597    -0.23300
C768        C  0.47049518  0.48871071  0.99816193     0.19600
F769        F  0.44065300  0.47487522  0.00034303    -0.13300
F770        F  0.99013888  0.44746059  0.04400579    -0.15700
F771        F  0.51274667  0.56040661  0.95147884    -0.15700
F772        F  0.06224945  0.53263636  0.49476206    -0.13300
C773        C  0.13607294  0.74885466  0.71193769     0.24700
C774        C  0.13203908  0.78620342  0.72592947    -0.23400
C775        C  0.12593698  0.78813587  0.75948656     0.19600
C776        C  0.12385606  0.75372199  0.77844703     0.24600
C777        C  0.12717358  0.71638572  0.76427589    -0.23300
C778        C  0.13351339  0.71435000  0.73077645     0.19600
F779        F  0.13758084  0.67881715  0.71622502    -0.13300
F780        F  0.14364324  0.74568798  0.68048112    -0.15700
F781        F  0.11736439  0.75698227  0.81030044    -0.15700
F782        F  0.12158233  0.82355455  0.77404030    -0.13300
C783        C  0.14751369  0.49632271  0.96093832     0.24700
C784        C  0.12047666  0.47199423  0.96294576    -0.23400
C785        C  0.09364872  0.47509738  0.93759949     0.19600
C786        C  0.09354331  0.50200674  0.91148826     0.24600
C787        C  0.12027801  0.52646223  0.90970299    -0.23300
C788        C  0.14735146  0.52326927  0.93443458     0.19600
F789        F  0.17411677  0.54499323  0.93218736    -0.13300
F790        F  0.17386266  0.49418743  0.48434165    -0.15700
F791        F  0.06707591  0.50413758  0.88772097    -0.15700
F792        F  0.06688201  0.45273534  0.93819093    -0.13300
C793        C  0.09423596  0.50215025  0.66138225     0.24700
C794        C  0.11916245  0.47487031  0.66118755    -0.23400
C795        C  0.14527082  0.47587341  0.68728290     0.19600
C796        C  0.14654691  0.50414173  0.71295993     0.24600
C797        C  0.12180830  0.53210226  0.71272245    -0.23300
C798        C  0.09579908  0.53084326  0.68630458     0.19600
F799        F  0.07132963  0.55691223  0.68466308    -0.13300
F800        F  0.06819036  0.50136998  0.63694630    -0.15700
F801        F  0.17189498  0.50374051  0.73814750    -0.15700
F802        F  0.17004422  0.45058228  0.68728773    -0.13300
C803        C  0.23883832  0.62349048  0.85437384     0.24700
C804        C  0.22003451  0.58884803  0.85408570    -0.23400
C805        C  0.23381710  0.55498176  0.87086059     0.19600
C806        C  0.26557798  0.55580839  0.88722676     0.24600
C807        C  0.28440380  0.59042331  0.88714360    -0.23300
C808        C  0.27044524  0.62433775  0.87078213     0.19600
F809        F  0.28760842  0.65835810  0.86972024    -0.13300
F810        F  0.22681696  0.65676972  0.83843406    -0.15700
F811        F  0.27770814  0.52278950  0.90354732    -0.15700
F812        F  0.21643639  0.52116433  0.87219766    -0.13300
C813        C  0.48796133  0.61169583  0.87644752     0.24700
C814        C  0.47540607  0.64720808  0.88674910    -0.23400
C815        C  0.49109817  0.68316049  0.88174419     0.19600
C816        C  0.01865390  0.68336120  0.86585295     0.24600
C817        C  0.03084122  0.64754451  0.85530940    -0.23300
C818        C  0.01559768  0.61181352  0.86152765     0.19600
F819        F  0.02776676  0.57665295  0.85345132    -0.13300
F820        F  0.47349233  0.57653039  0.88116694    -0.15700
F821        F  0.03362164  0.71818883  0.86126737    -0.15700
F822        F  0.47946089  0.71784779  0.89161603    -0.13300
C823        C  0.03277925  0.48747277  0.74067116     0.24700
C824        C  0.02795878  0.51582017  0.76497983    -0.23400
C825        C  0.99677383  0.52932785  0.76625590     0.19600
C826        C  0.47107455  0.51541022  0.74339838     0.24600
C827        C  0.47581767  0.48684114  0.71929640    -0.23300
C828        C  0.50696852  0.47314721  0.71804711     0.19600
F829        F  0.51248387  0.44556643  0.69507800    -0.13300
F830        F  0.06255422  0.47442901  0.73793670    -0.15700
F831        F  0.44136765  0.52887274  0.74590587    -0.15700
F832        F  0.99102544  0.55626361  0.78960366    -0.13300
O833        O  0.58557660  0.63405912  0.35884653    -0.84200
O834        O  0.63440475  0.58384411  0.37967913    -0.81300
C835        C  0.62080943  0.54989639  0.37897099     0.99200
O836        O  0.60895106  0.53423726  0.35162566    -0.81300
O837        O  0.58370528  0.52343340  0.28596446    -0.84000
C838        C  0.55568019  0.53709949  0.28384474     1.03800
O839        O  0.55191516  0.57188874  0.29307672    -0.76700
O840        O  0.56073183  0.64958705  0.30908065    -0.76900
C841        C  0.56070362  0.64537201  0.34035027     1.03700
O842        O  0.62374046  0.67726346  0.31444829    -0.84200
O843        O  0.67150395  0.62203132  0.33393748    -0.81300
C844        C  0.68558766  0.58942385  0.33963023     0.99200
O845        O  0.66966036  0.55734879  0.33527313    -0.81300
O846        O  0.64144676  0.55536843  0.26793931    -0.83900
C847        C  0.62029000  0.55772917  0.24236003     1.03700
O848        O  0.59464079  0.57637658  0.24412695    -0.76800
O849        O  0.60868469  0.65157309  0.26439316    -0.76900
C850        C  0.62032921  0.67992978  0.28238831     1.03700
Cr851      Cr  0.62773114  0.62763023  0.34435833     1.93700
Cr852      Cr  0.62523444  0.54620964  0.31038104     1.93200
Cr853      Cr  0.58120043  0.61158121  0.27986106     1.39100
O854        O  0.61179915  0.59547739  0.31139729    -1.22000
O855        O  0.92020945  0.63388193  0.38177822    -0.84200
O856        O  0.86952710  0.58526616  0.35981142    -0.81300
C857        C  0.88266683  0.55141008  0.35974585     0.99200
O858        O  0.89447037  0.53531203  0.38680520    -0.81300
O859        O  0.92037235  0.52367330  0.45205074    -0.84000
C860        C  0.94844493  0.53792797  0.45451017     1.03800
O861        O  0.95238320  0.57285517  0.44569479    -0.76700
O862        O  0.94426154  0.65059093  0.43165598    -0.76900
C863        C  0.94496668  0.64560928  0.40060005     1.03700
O864        O  0.88358408  0.67778475  0.42664581    -0.84200
O865        O  0.83400001  0.62345059  0.40669643    -0.81300
C866        C  0.81908980  0.59095961  0.40147824     0.99200
O867        O  0.83428908  0.55857831  0.40493259    -0.81300
O868        O  0.86319095  0.55426378  0.47154803    -0.83900
C869        C  0.88411616  0.55585393  0.99684601     1.03700
O870        O  0.90994473  0.57481235  0.99527736    -0.76800
O871        O  0.89636635  0.65056391  0.47630083    -0.76900
C872        C  0.88681086  0.67989285  0.45877617     1.03700
Cr873      Cr  0.87777965  0.62845025  0.39597670     1.93700
Cr874      Cr  0.87881646  0.54646975  0.42862743     1.93200
Cr875      Cr  0.92363808  0.61151492  0.46018516     1.39100
O876        O  0.89288009  0.59576029  0.42846573    -1.22000
O877        O  0.88029818  0.32574146  0.17572239    -0.84200
O878        O  0.83190333  0.37957858  0.15512591    -0.81300
C879        C  0.81769995  0.41208952  0.14937416     0.99200
O880        O  0.83346897  0.44433063  0.15330952    -0.81300
O881        O  0.86307246  0.45030702  0.22030267    -0.84000
C882        C  0.88457339  0.44807763  0.24566613     1.03800
O883        O  0.91007595  0.42931052  0.24348234    -0.76700
O884        O  0.89447800  0.35370654  0.22500739    -0.76900
C885        C  0.88402287  0.32419043  0.20779011     1.03700
O886        O  0.91767610  0.36674094  0.13019634    -0.84200
O887        O  0.86810978  0.41584166  0.10794521    -0.81300
C888        C  0.88178472  0.44955725  0.10774970     0.99200
O889        O  0.89353288  0.46624961  0.13464976    -0.81300
O890        O  0.92031728  0.47951594  0.19912453    -0.83900
C891        C  0.94822254  0.46546537  0.20099779     1.03700
O892        O  0.95161655  0.43021009  0.19284996    -0.76800
O893        O  0.94173552  0.35205852  0.18027570    -0.76900
C894        C  0.94214513  0.35450475  0.14898971     1.03700
Cr895      Cr  0.87553922  0.37385932  0.14458393     1.93700
Cr896      Cr  0.87820116  0.45652400  0.17668877     1.93200
Cr897      Cr  0.92225692  0.39213730  0.20826304     1.39100
O898        O  0.89142569  0.40720165  0.17671849    -1.22000
O899        O  0.62012513  0.32655685  0.06284050    -0.84200
O900        O  0.66909219  0.38065887  0.08358862    -0.81300
C901        C  0.68382989  0.41317182  0.08903264     0.99200
O902        O  0.66845705  0.44533881  0.08564133    -0.81300
O903        O  0.63946281  0.45037932  0.01869487    -0.84000
C904        C  0.61802156  0.44768758  0.49300880     1.03800
O905        O  0.59198853  0.42946416  0.49518781    -0.76700
O906        O  0.60528308  0.35381546  0.01352697    -0.76900
C907        C  0.61617927  0.32473145  0.03070152     1.03700
O908        O  0.58307337  0.36793981  0.10848325    -0.84200
O909        O  0.63305272  0.41745859  0.13071983    -0.81300
C910        C  0.61996123  0.45129608  0.13074755     0.99200
O911        O  0.60856714  0.46765215  0.10369885    -0.81300
O912        O  0.58280466  0.48071146  0.03923273    -0.83900
C913        C  0.55463270  0.46717680  0.03769071     1.03700
O914        O  0.55040276  0.43201331  0.04584990    -0.76800
O915        O  0.55826690  0.35365575  0.05850498    -0.76900
C916        C  0.55824119  0.35590076  0.08986358     1.03700
Cr917      Cr  0.62530554  0.37499672  0.09409050     1.93700
Cr918      Cr  0.62413156  0.45737435  0.06198504     1.93200
Cr919      Cr  0.57873685  0.39311959  0.03049219     1.39100
O920        O  0.60995923  0.40811079  0.06195024    -1.22000
O921        O  0.87683839  0.82498702  0.06623728    -0.84200
O922        O  0.92483447  0.88107696  0.08468119    -0.81300
C923        C  0.93904943  0.91412020  0.08878160     0.99200
O924        O  0.92310083  0.94584835  0.08505045    -0.81300
O925        O  0.89375191  0.94858206  0.01845989    -0.84000
C926        C  0.87262656  0.94646476  0.49323843     1.03800
O927        O  0.84744796  0.92639267  0.49529428    -0.76700
O928        O  0.86357495  0.85075855  0.01606754    -0.76900
C929        C  0.87433332  0.82235667  0.03426940     1.03700
O930        O  0.83897396  0.86754364  0.11031410    -0.84200
O931        O  0.88872647  0.91850757  0.13118056    -0.81300
C932        C  0.87515835  0.95203575  0.13071505     0.99200
O933        O  0.86290129  0.96719701  0.10341472    -0.81300
O934        O  0.83629757  0.97748236  0.03871886    -0.83900
C935        C  0.80830206  0.96312640  0.03673112     1.03700
O936        O  0.80446983  0.92752684  0.04403859    -0.76800
O937        O  0.81530826  0.85054975  0.06036887    -0.76900
C938        C  0.81446503  0.85492601  0.09157368     1.03700
Cr939      Cr  0.88124465  0.87481964  0.09573974     1.93700
Cr940      Cr  0.87833565  0.95613509  0.06163253     1.93200
Cr941      Cr  0.83489744  0.88943052  0.03103636     1.39100
O942        O  0.86518829  0.90660130  0.06269146    -1.22000
O943        O  0.63453788  0.82623403  0.17602129    -0.84200
O944        O  0.58648469  0.88141823  0.15588179    -0.81300
C945        C  0.57252818  0.91406633  0.14980030     0.99200
O946        O  0.58840103  0.94616332  0.15438577    -0.81300
O947        O  0.61688329  0.95018000  0.22177382    -0.84000
C948        C  0.63801175  0.94768994  0.24741705     1.03800
O949        O  0.66359209  0.92873320  0.24565678    -0.76700
O950        O  0.64897915  0.85272049  0.22591826    -0.76900
C951        C  0.63815999  0.82375895  0.20810901     1.03700
O952        O  0.67253455  0.86902662  0.13169278    -0.84200
O953        O  0.62344576  0.91890981  0.10991482    -0.81300
C954        C  0.63720813  0.95267499  0.11043618     0.99200
O955        O  0.64937431  0.96824615  0.13765121    -0.81300
O956        O  0.67446387  0.98000546  0.20234694    -0.83900
C957        C  0.70234890  0.96626275  0.20376181     1.03700
O958        O  0.70597932  0.93107085  0.19564991    -0.76800
O959        O  0.69686888  0.85350666  0.18143031    -0.76900
C960        C  0.69717590  0.85699120  0.15002429     1.03700
Cr961      Cr  0.63027766  0.87561717  0.14574358     1.93700
Cr962      Cr  0.63287273  0.95749279  0.17889678     1.93200
Cr963      Cr  0.67660288  0.89234935  0.21006280     1.39100
O964        O  0.64596714  0.90807643  0.17852851    -1.22000
O965        O  0.67262312  0.13392830  0.38182204    -0.84200
O966        O  0.62286075  0.08319832  0.36213596    -0.81300
C967        C  0.63520709  0.04878487  0.36330543     0.99200
O968        O  0.64598349  0.03331115  0.39103639    -0.81300
O969        O  0.67261690  0.02488339  0.45668782    -0.84000
C970        C  0.70091487  0.03813697  0.45819082     1.03800
O971        O  0.70540043  0.07267065  0.44840063    -0.76700
O972        O  0.69752442  0.15033885  0.43133753    -0.76900
C973        C  0.69749297  0.14650316  0.40006562     1.03700
O974        O  0.63516235  0.17829325  0.42575449    -0.84200
O975        O  0.58683951  0.12362872  0.40765964    -0.81300
C976        C  0.57184895  0.09124188  0.40344787     0.99200
O977        O  0.58690883  0.05900283  0.40858280    -0.81300
O978        O  0.61627690  0.05876456  0.47558893    -0.83900
C979        C  0.63760616  0.06120419  0.00065975     1.03700
O980        O  0.66350495  0.07938479  0.99804082    -0.76800
O981        O  0.65031924  0.15372841  0.47601332    -0.76900
C982        C  0.63842371  0.18146553  0.45776454     1.03700
Cr983      Cr  0.63048037  0.12790821  0.39676258     1.93700
Cr984      Cr  0.63123447  0.04762650  0.43269709     1.93200
Cr985      Cr  0.67702841  0.11318931  0.46122570     1.39100
O986        O  0.64593326  0.09648126  0.43023761    -1.22000
O987        O  0.83796871  0.13494256  0.35835553    -0.84200
O988        O  0.88758407  0.08613817  0.38114553    -0.81300
C989        C  0.87416574  0.05220783  0.38110833     0.99200
O990        O  0.86234197  0.03582889  0.35400790    -0.81300
O991        O  0.83780703  0.02309046  0.28809577    -0.84000
C992        C  0.80987254  0.03700338  0.28553101     1.03800
O993        O  0.80608797  0.07177586  0.29462873    -0.76700
O994        O  0.81368091  0.14962845  0.30835574    -0.76900
C995        C  0.81330380  0.14681850  0.33963270     1.03700
O996        O  0.87583368  0.17768998  0.31441601    -0.84200
O997        O  0.92431219  0.12386014  0.33494685    -0.81300
C998        C  0.93867599  0.09151154  0.34095107     0.99200
O999        O  0.92306211  0.05915013  0.33716731    -0.81300
O1000       O  0.89549105  0.05391295  0.26978890    -0.83900
C1001       C  0.87463218  0.05655698  0.24391185     1.03700
O1002       O  0.84892065  0.07514647  0.24542454    -0.76800
O1003       O  0.86233661  0.15058496  0.26475048    -0.76900
C1004       C  0.87258996  0.17980988  0.28240321     1.03700
Cr1005     Cr  0.88043072  0.12883769  0.34488393     1.93700
Cr1006     Cr  0.87896612  0.04656884  0.31246726     1.93200
Cr1007     Cr  0.83492880  0.11099171  0.28041354     1.39100
O1008       O  0.86533612  0.09583143  0.31233785    -1.22000
C1009       C  0.75729396  0.15286264  0.40483472     0.24700
C1010       C  0.72697492  0.15448723  0.38480128    -0.23400
C1011       C  0.72557085  0.15904607  0.34975399     0.19600
C1012       C  0.75363381  0.15945154  0.33496384     0.24600
C1013       C  0.78388003  0.15489176  0.35494577    -0.23300
C1014       C  0.78520162  0.15309624  0.39015152     0.19600
F1015       F  0.81363253  0.14959078  0.41078753    -0.13300
F1016       F  0.76006716  0.14824411  0.43861634    -0.15700
F1017       F  0.75096573  0.16234425  0.30104221    -0.15700
F1018       F  0.69688614  0.16187150  0.32945253    -0.13300
C1019       C  0.52042763  0.12686716  0.38355900     0.24700
C1020       C  0.53726050  0.09103003  0.38920559    -0.23400
C1021       C  0.52146572  0.05541393  0.37801527     0.19600
C1022       C  0.98988222  0.05566825  0.36146008     0.24600
C1023       C  0.97311314  0.09151617  0.35572083    -0.23300
C1024       C  0.98886329  0.12711271  0.36704758     0.19600
F1025       F  0.97367169  0.16243957  0.36275682    -0.13300
F1026       F  0.53444280  0.16204491  0.39382363    -0.15700
F1027       F  0.97585818  0.02057237  0.35098309    -0.15700
F1028       F  0.53665958  0.02011000  0.38243355    -0.13300
C1029       C  0.76114594  0.97471282  0.21891709     0.24700
C1030       C  0.73006864  0.98784921  0.22121444    -0.23400
C1031       C  0.72555011  0.01632868  0.24542153     0.19600
C1032       C  0.75144568  0.03033322  0.26775658     0.24600
C1033       C  0.78247275  0.01667504  0.26603009    -0.23300
C1034       C  0.78717641  0.98903513  0.24114363     0.19600
F1035       F  0.81694610  0.97675050  0.23751416    -0.13300
F1036       F  0.76631028  0.94753812  0.19546121    -0.15700
F1037       F  0.74604994  0.05749993  0.29110101    -0.15700
F1038       F  0.69589755  0.02933524  0.24874101    -0.13300
C1039       C  0.61311696  0.02866544  0.30392948     0.24700
C1040       C  0.63613383  0.02456453  0.33279509    -0.23400
C1041       C  0.65899441  0.99429331  0.33364952     0.19600
C1042       C  0.65883142  0.96864385  0.30650772     0.24600
C1043       C  0.63554030  0.97208060  0.27768351    -0.23300
C1044       C  0.61274452  0.00266167  0.27667420     0.19600
F1045       F  0.59053052  0.00830410  0.24898083    -0.13300
F1046       F  0.59054045  0.05723724  0.30231686    -0.14900
F1047       F  0.68203997  0.94083370  0.30843773    -0.15700
F1048       F  0.68203286  0.98959808  0.36082343    -0.13300
C1049       C  0.60925089  0.98372337  0.05796169     0.24700
C1050       C  0.63750587  0.97696073  0.08031202    -0.23400
C1051       C  0.66478291  0.00019167  0.07799121     0.19600
C1052       C  0.66399706  0.02960712  0.05373419     0.24600
C1053       C  0.63597023  0.03604265  0.03051881    -0.23300
C1054       C  0.60846536  0.01290922  0.03313387     0.19600
F1055       F  0.58078619  0.01841369  0.01171569    -0.13300
F1056       F  0.58203311  0.96347231  0.06122774    -0.15700
F1057       F  0.69122824  0.05084822  0.05255527    -0.15700
F1058       F  0.69235780  0.99461915  0.09966642    -0.13300
C1059       C  0.78544225  0.01510535  0.49643950     0.24700
C1060       C  0.78061121  0.98528422  0.02003428    -0.23400
C1061       C  0.74932152  0.97210245  0.02210573     0.19600
C1062       C  0.72332185  0.98752355  0.00064276     0.24600
C1063       C  0.72826088  0.01688300  0.47681275    -0.23300
C1064       C  0.75954285  0.03020389  0.47493242     0.19600
F1065       F  0.76523831  0.05800425  0.45217143    -0.13300
F1066       F  0.81521842  0.02828046  0.49315493    -0.15700
F1067       F  0.69348390  0.97427117  0.00361884    -0.15700
F1068       F  0.74386173  0.94422419  0.04490269    -0.13300
C1069       C  0.90232894  0.99302807  0.45946876     0.24700
C1070       C  0.87415277  0.97189746  0.46336949    -0.23400
C1071       C  0.84583783  0.97989705  0.44100497     0.19600
C1072       C  0.84565071  0.00829359  0.41587835     0.24600
C1073       C  0.87369323  0.02907333  0.41195510    -0.23300
C1074       C  0.90207255  0.02132695  0.43390558     0.19600
F1075       F  0.92981150  0.03974094  0.42958073    -0.13300
F1076       F  0.93024821  0.98608200  0.48011449    -0.15700
F1077       F  0.81784515  0.01546582  0.39504842    -0.15700
F1078       F  0.81784802  0.96118329  0.44387617    -0.13300
C1079       C  0.85017445  0.00387156  0.16131189     0.24700
C1080       C  0.87481046  0.97620882  0.16112248    -0.23400
C1081       C  0.90066680  0.97648620  0.18756658     0.19600
C1082       C  0.90179893  0.00416330  0.21373019     0.24600
C1083       C  0.87706011  0.03203376  0.21382164    -0.23300
C1084       C  0.85144939  0.03169583  0.18690307     0.19600
F1085       F  0.82695665  0.05768367  0.18548608    -0.13300
F1086       F  0.82445864  0.00406273  0.13647293    -0.15700
F1087       F  0.92696582  0.00319502  0.23910102    -0.15700
F1088       F  0.92523533  0.95087807  0.18757397    -0.13300
C1089       C  0.75646757  0.84186435  0.15475615     0.24700
C1090       C  0.72675633  0.84921150  0.13478721    -0.23400
C1091       C  0.72611446  0.85374755  0.09969247     0.19600
C1092       C  0.75439630  0.85297783  0.08558203     0.24600
C1093       C  0.78424427  0.84789282  0.10578179    -0.23300
C1094       C  0.78486079  0.84139019  0.14056538     0.19600
F1095       F  0.81305996  0.83570470  0.16103243    -0.13300
F1096       F  0.75848690  0.83693266  0.18849994    -0.15700
F1097       F  0.75254276  0.86014199  0.05214825    -0.15700
F1098       F  0.69830061  0.86090719  0.07899416    -0.13300
C1099       C  0.52400344  0.88045198  0.11791127     0.24700
C1100       C  0.53836932  0.91463765  0.13400326    -0.23400
C1101       C  0.52054826  0.94987277  0.13213293     0.19600
C1102       C  0.98867549  0.95026284  0.11620712     0.24600
C1103       C  0.97397867  0.91553951  0.10132200    -0.23300
C1104       C  0.99241170  0.88102324  0.10153684     0.19600
F1105       F  0.97993316  0.84753671  0.08580709    -0.13300
F1106       F  0.54069428  0.84636631  0.11724179    -0.15700
F1107       F  0.97205632  0.98449870  0.11628540    -0.15700
F1108       F  0.53372228  0.98398372  0.14609062    -0.13300
C1109       C  0.62290386  0.28926426  0.47699099     0.24700
C1110       C  0.62223571  0.28810349  0.01213974    -0.23400
C1111       C  0.62430836  0.25118336  0.02811026     0.19600
C1112       C  0.62824182  0.21671460  0.01000475     0.24600
C1113       C  0.63031470  0.21799971  0.47530304    -0.23300
C1114       C  0.62677134  0.25464791  0.45888515     0.19600
F1115       F  0.62774236  0.25730512  0.42541817    -0.13300
F1116       F  0.62020969  0.32408374  0.45996128    -0.15700
F1117       F  0.62968555  0.18174184  0.02678812    -0.15700
F1118       F  0.62173830  0.24809127  0.06120547    -0.13300
C1119       C  0.88052079  0.25024825  0.21080245     0.24700
C1120       C  0.87926515  0.28725219  0.22627561    -0.23400
C1121       C  0.87734466  0.28868672  0.26104647     0.19600
C1122       C  0.87687048  0.25393180  0.27981196     0.24600
C1123       C  0.87784309  0.21690572  0.26425813    -0.23300
C1124       C  0.88005046  0.21553748  0.22954109     0.19600
F1125       F  0.88199084  0.18044995  0.21347944    -0.13300
F1126       F  0.88319221  0.24750963  0.17771232    -0.15700
F1127       F  0.87459027  0.25664039  0.31298897    -0.15700
F1128       F  0.87571220  0.32384790  0.27709022    -0.13300
C1129       C  0.73618557  0.37814479  0.10484841     0.24700
C1130       C  0.71859878  0.41353755  0.10254023    -0.23400
C1131       C  0.73397195  0.44852497  0.11604744     0.19600
C1132       C  0.76584112  0.44795155  0.13184451     0.24600
C1133       C  0.78318780  0.41235495  0.13478560    -0.23300
C1134       C  0.76792805  0.37752059  0.12085185     0.19600
F1135       F  0.78383607  0.34266789  0.12192994    -0.13300
F1136       F  0.72275955  0.34382264  0.09161091    -0.15700
F1137       F  0.77955517  0.48239319  0.14446384    -0.15700
F1138       F  0.71809465  0.48342077  0.11470352    -0.13300
C1139       C  0.97050640  0.34300910  0.09910914     0.24700
C1140       C  0.97167081  0.34577503  0.13424064    -0.23400
C1141       C  0.50188546  0.34559487  0.15465291     0.19600
C1142       C  0.53001843  0.34621164  0.14021929     0.24600
C1143       C  0.52883099  0.34682244  0.10498662    -0.23300
C1144       C  0.99864395  0.34354056  0.08465155     0.19600
F1145       F  0.99607982  0.34331438  0.05064673    -0.13300
F1146       F  0.94197315  0.34148093  0.07836702    -0.15700
F1147       F  0.55848072  0.34812635  0.16105689    -0.15700
F1148       F  0.50438869  0.34749299  0.18862000    -0.13300
C1149       C  0.87300861  0.74831659  0.02911126     0.24700
C1150       C  0.88099035  0.78532452  0.01687541    -0.23400
C1151       C  0.89130357  0.78777892  0.48560917     0.19600
C1152       C  0.89203706  0.75367974  0.46587848     0.24600
C1153       C  0.88233707  0.71697654  0.47726197    -0.23300
C1154       C  0.87342343  0.71429766  0.00928413     0.19600
F1155       F  0.86481213  0.67914157  0.02178639    -0.13300
F1156       F  0.86348912  0.74518575  0.05971329    -0.15700
F1157       F  0.90354527  0.75633164  0.43628482    -0.15700
F1158       F  0.90097038  0.82278985  0.47379287    -0.13300
C1159       C  0.85550475  0.52258571  0.30519412     0.24700
C1160       C  0.88322785  0.52814156  0.32885770    -0.23400
C1161       C  0.91047105  0.50559626  0.32608892     0.19600
C1162       C  0.91027576  0.47825926  0.30014747     0.24600
C1163       C  0.88270945  0.47275903  0.27591903    -0.23300
C1164       C  0.85521189  0.49514075  0.27892654     0.19600
F1165       F  0.82790429  0.49037336  0.25663603    -0.13300
F1166       F  0.82829705  0.54226725  0.30844218    -0.15700
F1167       F  0.93753017  0.45782003  0.29861203    -0.15700
F1168       F  0.93753422  0.50986083  0.34886897    -0.13300
C1169       C  0.85556300  0.50404619  0.02664064     0.24700
C1170       C  0.88203320  0.52984766  0.02606266    -0.23400
C1171       C  0.90895968  0.52589428  0.05113319     0.19600
C1172       C  0.90956576  0.49711313  0.07579384     0.24600
C1173       C  0.88295741  0.47223335  0.07690886    -0.23300
C1174       C  0.85605878  0.47553325  0.05199831     0.19600
F1175       F  0.82976706  0.45245353  0.05302873    -0.13300
F1176       F  0.82877905  0.50848307  0.50383184    -0.15700
F1177       F  0.93623488  0.49394662  0.09919822    -0.15700
F1178       F  0.93533917  0.54926316  0.05165479    -0.13300
C1179       C  0.49598813  0.47456596  0.52032915     0.24700
C1180       C  0.52729445  0.48878847  0.01985712    -0.23400
C1181       C  0.53237923  0.51799863  0.99635058     0.19600
C1182       C  0.00694863  0.53278528  0.47397463     0.24600
C1183       C  0.97577216  0.51775679  0.47397222    -0.23300
C1184       C  0.97055097  0.48859332  0.49748303     0.19600
F1185       F  0.94071275  0.47443514  0.49923730    -0.13300
F1186       F  0.49000302  0.44662841  0.54287928    -0.15700
F1187       F  0.01292979  0.56165307  0.45222253    -0.15700
F1188       F  0.56222071  0.53188749  0.99414248    -0.13300
C1189       C  0.63647972  0.74927340  0.21226355     0.24700
C1190       C  0.63217041  0.78660310  0.22614139    -0.23400
C1191       C  0.62580126  0.78853420  0.25960196     0.19600
C1192       C  0.62374557  0.75411304  0.27858916     0.24600
C1193       C  0.62740747  0.71678269  0.26454073    -0.23300
C1194       C  0.63399317  0.71477595  0.23112880     0.19600
F1195       F  0.63834222  0.67926790  0.21667364    -0.13300
F1196       F  0.64424078  0.74613112  0.18088515    -0.15700
F1197       F  0.61691153  0.75733933  0.31031452    -0.15700
F1198       F  0.62112269  0.82394853  0.27400174    -0.13300
C1199       C  0.64738597  0.49606002  0.46063986     0.24700
C1200       C  0.62046987  0.47150053  0.46254878    -0.23400
C1201       C  0.59376366  0.47422088  0.43701480     0.19600
C1202       C  0.59354655  0.50126371  0.41097338     0.24600
C1203       C  0.62011175  0.52610824  0.40939251    -0.23300
C1204       C  0.64714907  0.52305589  0.43417657     0.19600
F1205       F  0.67382322  0.54499800  0.43203419    -0.13300
F1206       F  0.67404048  0.49426180  0.98456737    -0.15700
F1207       F  0.56714468  0.50315689  0.38709771    -0.15700
F1208       F  0.56723894  0.45131862  0.43733963    -0.13300
C1209       C  0.59450541  0.50229358  0.16150232     0.24700
C1210       C  0.61927813  0.47477301  0.16140665    -0.23400
C1211       C  0.64533874  0.47561547  0.18756675     0.19600
C1212       C  0.64672477  0.50399280  0.21318091     0.24600
C1213       C  0.62215980  0.53221778  0.21280989    -0.23300
C1214       C  0.59619028  0.53108486  0.18634569     0.19600
F1215       F  0.57189191  0.55741479  0.18455584    -0.13300
F1216       F  0.56849650  0.50169136  0.13701541    -0.15700
F1217       F  0.67200257  0.50342917  0.23844547    -0.15700
F1218       F  0.66995251  0.45005476  0.18770006    -0.13300
C1219       C  0.73893591  0.62350516  0.35433389     0.24700
C1220       C  0.72003995  0.58901621  0.35459249    -0.23400
C1221       C  0.73368282  0.55548701  0.37202530     0.19600
C1222       C  0.76544517  0.55646536  0.38842286     0.24600
C1223       C  0.78437691  0.59090556  0.38772488    -0.23300
C1224       C  0.77052093  0.62451691  0.37079069     0.19600
F1225       F  0.78779261  0.65834991  0.36916513    -0.13300
F1226       F  0.72703373  0.65644395  0.33775258    -0.15700
F1227       F  0.77747402  0.52380928  0.40539341    -0.15700
F1228       F  0.71615402  0.52190831  0.37398624    -0.13300
C1229       C  0.98771305  0.61216288  0.37613206     0.24700
C1230       C  0.97532603  0.64770994  0.38659402    -0.23400
C1231       C  0.99115360  0.68358286  0.38162963     0.19600
C1232       C  0.51868346  0.68366234  0.36568263     0.24600
C1233       C  0.53071791  0.64780961  0.35501370    -0.23300
C1234       C  0.51530999  0.61215499  0.36113123     0.19600
F1235       F  0.52729727  0.57694274  0.35290446    -0.13300
F1236       F  0.97315235  0.57706225  0.38084069    -0.15700
F1237       F  0.53378745  0.71841757  0.36117737    -0.15700
F1238       F  0.97969494  0.71831109  0.39163458    -0.13300
C1239       C  0.53284201  0.48649881  0.24153324     0.24700
C1240       C  0.52809409  0.51615841  0.26477064    -0.23400
C1241       C  0.49702352  0.53068013  0.26506447     0.19600
C1242       C  0.97139974  0.51647263  0.24228991     0.24600
C1243       C  0.97605066  0.48658926  0.21928271    -0.23300
C1244       C  0.00708210  0.47185636  0.21902905     0.19600
F1245       F  0.01254363  0.44289923  0.19721081    -0.13300
F1246       F  0.56250377  0.47236350  0.23975778    -0.15700
F1247       F  0.94182482  0.53102888  0.24382775    -0.15700
F1248       F  0.49128941  0.55895952  0.28732067    -0.13300
O1249       O  0.58570536  0.63403279  0.85895911    -0.84200
O1250       O  0.63461141  0.58392243  0.87969538    -0.81300
C1251       C  0.62101082  0.54999694  0.87915111     0.99200
O1252       O  0.60908361  0.53418676  0.85187992    -0.81300
O1253       O  0.58352404  0.52316003  0.78625245    -0.84000
C1254       C  0.55548250  0.53677688  0.78413970     1.03800
O1255       O  0.55166483  0.57157899  0.79333036    -0.76700
O1256       O  0.56061930  0.64935651  0.80923952    -0.76900
C1257       C  0.56075075  0.64523035  0.84053906     1.03700
O1258       O  0.62361296  0.67704374  0.81425386    -0.84200
O1259       O  0.67145229  0.62193002  0.83361878    -0.81300
C1260       C  0.68554038  0.58932257  0.83928119     0.99200
O1261       O  0.66958566  0.55726582  0.83507137    -0.81300
O1262       O  0.64110159  0.55511521  0.76788026    -0.83900
C1263       C  0.61989370  0.55745795  0.74234949     1.03700
O1264       O  0.59421688  0.57601295  0.74419609    -0.76800
O1265       O  0.60831675  0.65123334  0.76428890    -0.76900
C1266       C  0.62008051  0.67960592  0.78219076     1.03700
Cr1267     Cr  0.62775197  0.62755024  0.84426119     1.93700
Cr1268     Cr  0.62510613  0.54603672  0.81045052     1.93200
Cr1269     Cr  0.58091945  0.61127789  0.77996570     1.39100
O1270       O  0.61165042  0.59528346  0.81143171    -1.22000
O1271       O  0.92034604  0.63310748  0.88168474    -0.84200
O1272       O  0.86972876  0.58444893  0.85966917    -0.81300
C1273       C  0.88283889  0.55056263  0.85976557     0.99200
O1274       O  0.89453781  0.53455614  0.88689830    -0.81300
O1275       O  0.92022482  0.52315353  0.95222108    -0.84000
C1276       C  0.94830346  0.53741217  0.95467410     1.03800
O1277       O  0.95225312  0.57230815  0.94577934    -0.76700
O1278       O  0.94415513  0.65003591  0.93160141    -0.76900
C1279       C  0.94499628  0.64498911  0.90058692     1.03700
O1280       O  0.88357631  0.67721292  0.92622910    -0.84200
O1281       O  0.83402259  0.62289528  0.90623289    -0.81300
C1282       C  0.81909392  0.59042610  0.90100988     0.99200
O1283       O  0.83426004  0.55802305  0.90462319    -0.81300
O1284       O  0.86288913  0.55390903  0.97135043    -0.83900
C1285       C  0.88446038  0.55617867  0.49701701     1.03700
O1286       O  0.91027189  0.57517808  0.49542762    -0.76800
O1287       O  0.89606651  0.65000255  0.97591147    -0.76900
C1288       C  0.88669206  0.67935303  0.95834923     1.03700
Cr1289     Cr  0.87784968  0.62777268  0.89568949     1.93700
Cr1290     Cr  0.87870673  0.54590981  0.92856116     1.93200
Cr1291     Cr  0.92344324  0.61100486  0.96006314     1.39100
O1292       O  0.89280462  0.59517262  0.92829360    -1.22000
O1293       O  0.88054576  0.32543351  0.67554917    -0.84200
O1294       O  0.83196338  0.37914599  0.65482937    -0.81300
C1295       C  0.81771408  0.41165664  0.64922712     0.99200
O1296       O  0.83341822  0.44393191  0.65325000    -0.81300
O1297       O  0.86310573  0.44970534  0.72022170    -0.84000
C1298       C  0.88466259  0.44753907  0.74553820     1.03800
O1299       O  0.91025697  0.42903588  0.74325111    -0.76700
O1300       O  0.89499760  0.35341895  0.72479590    -0.76900
C1301       C  0.88447669  0.32388373  0.70763771     1.03700
O1302       O  0.91779956  0.36660955  0.62991117    -0.84200
O1303       O  0.86818504  0.41568338  0.60775837    -0.81300
C1304       C  0.88171874  0.44950768  0.60762043     0.99200
O1305       O  0.89335298  0.46625354  0.63453712    -0.81300
O1306       O  0.92014793  0.47949128  0.69903510    -0.83900
C1307       C  0.94811459  0.46565957  0.70083239     1.03700
O1308       O  0.95166970  0.43047875  0.69252988    -0.76800
O1309       O  0.94201599  0.35214421  0.67996830    -0.76900
C1310       C  0.94232560  0.35449527  0.64867843     1.03700
Cr1311     Cr  0.87567196  0.37360985  0.64436279     1.93700
Cr1312     Cr  0.87812424  0.45624932  0.67659163     1.93200
Cr1313     Cr  0.92250909  0.39208703  0.70797041     1.39100
O1314       O  0.89152541  0.40699343  0.67650735    -1.22000
O1315       O  0.62022411  0.32660705  0.56276121    -0.84200
O1316       O  0.66916175  0.38077207  0.58352061    -0.81300
C1317       C  0.68386505  0.41330565  0.58897185     0.99200
O1318       O  0.66848995  0.44547072  0.58543942    -0.81300
O1319       O  0.63940845  0.45021970  0.51841212    -0.84000
C1320       C  0.61806830  0.44794881  0.99329904     1.03800
O1321       O  0.59206433  0.42960997  0.99541883    -0.76700
O1322       O  0.60537287  0.35380598  0.51342966    -0.76900
C1323       C  0.61622156  0.32472190  0.53062588     1.03700
O1324       O  0.58312620  0.36798849  0.60829299    -0.84200
O1325       O  0.63300953  0.41760785  0.63052589    -0.81300
C1326       C  0.61992059  0.45145332  0.63051628     0.99200
O1327       O  0.60859456  0.46783181  0.60345358    -0.81300
O1328       O  0.58276656  0.48060698  0.53896144    -0.83900
C1329       C  0.55459302  0.46707254  0.53743113     1.03700
O1330       O  0.55036570  0.43191078  0.54561383    -0.76800
O1331       O  0.55839350  0.35353349  0.55832584    -0.76900
C1332       C  0.55834989  0.35580783  0.58966479     1.03700
Cr1333     Cr  0.62535206  0.37508677  0.59395509     1.93700
Cr1334     Cr  0.62412800  0.45739222  0.56172777     1.93200
Cr1335     Cr  0.57876461  0.39304342  0.53032344     1.39100
O1336       O  0.60997552  0.40813185  0.56177821    -1.22000
O1337       O  0.87716925  0.82583869  0.56668684    -0.84200
O1338       O  0.92514150  0.88221525  0.58493164    -0.81300
C1339       C  0.93930719  0.91530937  0.58889617     0.99200
O1340       O  0.92331515  0.94701612  0.58528303    -0.81300
O1341       O  0.89392482  0.94973245  0.51865920    -0.84000
C1342       C  0.87238648  0.94572723  0.99307903     1.03800
O1343       O  0.84716768  0.92570103  0.99502391    -0.76700
O1344       O  0.86389621  0.85149404  0.51647994    -0.76900
C1345       C  0.87454043  0.82306243  0.53471292     1.03700
O1346       O  0.83932248  0.86841610  0.61074761    -0.84200
O1347       O  0.88905863  0.91961938  0.63146945    -0.81300
C1348       C  0.87545986  0.95313763  0.63099740     0.99200
O1349       O  0.86306951  0.96815895  0.60368919    -0.81300
O1350       O  0.83644105  0.97830363  0.53892553    -0.83900
C1351       C  0.80848890  0.96382498  0.53690514     1.03700
O1352       O  0.80473748  0.92826353  0.54436561    -0.76800
O1353       O  0.81567810  0.85132612  0.56081025    -0.76900
C1354       C  0.81487613  0.85554899  0.59204596     1.03700
Cr1355     Cr  0.88158103  0.87582828  0.59609237     1.93700
Cr1356     Cr  0.87850651  0.95713791  0.56188500     1.93200
Cr1357     Cr  0.83520775  0.89020589  0.53140387     1.39100
O1358       O  0.86547352  0.90752745  0.56300125    -1.22000
O1359       O  0.63452090  0.82587189  0.67585053    -0.84200
O1360       O  0.58664224  0.88134884  0.65514897    -0.81300
C1361       C  0.57290510  0.91416604  0.64909323     0.99200
O1362       O  0.58892250  0.94612718  0.65386092    -0.81300
O1363       O  0.61690226  0.95021968  0.72143133    -0.84000
C1364       C  0.63783502  0.94751030  0.74723901     1.03800
O1365       O  0.66333715  0.92829186  0.74568578    -0.76700
O1366       O  0.64881399  0.85231251  0.72578281    -0.76900
C1367       C  0.63806140  0.82336529  0.70792759     1.03700
O1368       O  0.67302878  0.86836099  0.63194321    -0.84200
O1369       O  0.62426352  0.91847735  0.60973496    -0.81300
C1370       C  0.63813567  0.95217181  0.61032526     0.99200
O1371       O  0.65018627  0.96771942  0.63760017    -0.81300
O1372       O  0.67474304  0.97959708  0.70251969    -0.83900
C1373       C  0.70261905  0.96575330  0.70432378     1.03700
O1374       O  0.70625704  0.93056391  0.69620750    -0.76800
O1375       O  0.69716923  0.85301360  0.68181111    -0.76900
C1376       C  0.69757332  0.85628393  0.65039413     1.03700
Cr1377     Cr  0.63064109  0.87525106  0.64558399     1.93700
Cr1378     Cr  0.63327949  0.95721867  0.67869631     1.93200
Cr1379     Cr  0.67663135  0.89189259  0.71023402     1.39100
O1380       O  0.64620794  0.90769795  0.67847914    -1.22000
O1381       O  0.67252461  0.13375595  0.88181163    -0.84200
O1382       O  0.62271522  0.08306026  0.86208206    -0.81300
C1383       C  0.63507364  0.04864787  0.86324974     0.99200
O1384       O  0.64594786  0.03326124  0.89099792    -0.81300
O1385       O  0.67246187  0.02481707  0.95679067    -0.84000
C1386       C  0.70075758  0.03811552  0.95837143     1.03800
O1387       O  0.70520321  0.07260631  0.94848255    -0.76700
O1388       O  0.69734139  0.15022581  0.93134985    -0.76900
C1389       C  0.69735353  0.14638479  0.90008893     1.03700
O1390       O  0.63509136  0.17829548  0.92565587    -0.84200
O1391       O  0.58673676  0.12356020  0.90760033    -0.81300
C1392       C  0.57175784  0.09115787  0.90342117     0.99200
O1393       O  0.58682494  0.05891704  0.90846738    -0.81300
O1394       O  0.61599556  0.05861362  0.97548278    -0.83900
C1395       C  0.63797568  0.06112003  0.50069678     1.03700
O1396       O  0.66385397  0.07934308  0.49806136    -0.76800
O1397       O  0.65011865  0.15373099  0.97593315    -0.76900
C1398       C  0.63836572  0.18152426  0.95766918     1.03700
Cr1399     Cr  0.63036675  0.12781694  0.89670465     1.93700
Cr1400     Cr  0.63110404  0.04753292  0.93264670     1.93200
Cr1401     Cr  0.67680932  0.11313802  0.96122513     1.39100
O1402       O  0.64576706  0.09640998  0.93021297    -1.22000
O1403       O  0.83798584  0.13576352  0.85902157    -0.84200
O1404       O  0.88739387  0.08680509  0.88204866    -0.81300
C1405       C  0.87375688  0.05301970  0.88213169     0.99200
O1406       O  0.86180076  0.03662653  0.85509384    -0.81300
O1407       O  0.83747267  0.02342413  0.78928458    -0.84000
C1408       C  0.80956004  0.03741204  0.78652842     1.03800
O1409       O  0.80579611  0.07229631  0.79537179    -0.76700
O1410       O  0.81379121  0.15017601  0.80890992    -0.76900
C1411       C  0.81335593  0.14752503  0.84018399     1.03700
O1412       O  0.87597189  0.17797522  0.81488746    -0.84200
O1413       O  0.92419144  0.12390578  0.83557328    -0.81300
C1414       C  0.93843711  0.09152425  0.84178657     0.99200
O1415       O  0.92271282  0.05923551  0.83832517    -0.81300
O1416       O  0.89530987  0.05360655  0.77096123    -0.83900
C1417       C  0.87460246  0.05647242  0.74498119     1.03700
O1418       O  0.84888242  0.07510666  0.74637736    -0.76800
O1419       O  0.86248258  0.15058077  0.76534767    -0.76900
C1420       C  0.87279427  0.17988727  0.78286680     1.03700
Cr1421     Cr  0.88039424  0.12929261  0.84557209     1.93700
Cr1422     Cr  0.87862418  0.04679377  0.81360773     1.93200
Cr1423     Cr  0.83488984  0.11124799  0.78113708     1.39100
O1424       O  0.86518434  0.09613714  0.81318266    -1.22000
C1425       C  0.75710604  0.15355569  0.90507346     0.24700
C1426       C  0.72683238  0.15452265  0.88489241    -0.23400
C1427       C  0.72551381  0.15871259  0.84982307     0.19600
C1428       C  0.75364418  0.15947744  0.83518529     0.24600
C1429       C  0.78386252  0.15553675  0.85532965    -0.23300
C1430       C  0.78508430  0.15408302  0.89052787     0.19600
F1431       F  0.81349752  0.15119767  0.91129310    -0.13300
F1432       F  0.75979783  0.14930933  0.93888522    -0.15700
F1433       F  0.75109300  0.16205457  0.80125413    -0.15700
F1434       F  0.69687321  0.16077423  0.82934996    -0.13300
C1435       C  0.52023426  0.12674467  0.88412675     0.24700
C1436       C  0.53714840  0.09093206  0.88936899    -0.23400
C1437       C  0.52137269  0.05534805  0.87804078     0.19600
C1438       C  0.98970152  0.05562503  0.86175804     0.24600
C1439       C  0.97287693  0.09146324  0.85639148    -0.23300
C1440       C  0.98860205  0.12701375  0.86786452     0.19600
F1441       F  0.97330557  0.16229976  0.86400097    -0.13300
F1442       F  0.53422097  0.16187636  0.89457632    -0.15700
F1443       F  0.97565488  0.02058025  0.85115477    -0.15700
F1444       F  0.53666857  0.02008174  0.88203894    -0.13300
C1445       C  0.76135012  0.97376819  0.72058388     0.24700
C1446       C  0.73022923  0.98730925  0.72208336    -0.23400
C1447       C  0.72546381  0.01647609  0.74565023     0.19600
C1448       C  0.75116546  0.03087700  0.76805996     0.24600
C1449       C  0.78223524  0.01689494  0.76705336    -0.23300
C1450       C  0.78717145  0.98848030  0.74285609     0.19600
F1451       F  0.81700207  0.97582036  0.73988270    -0.13300
F1452       F  0.76678663  0.94586325  0.69783330    -0.15700
F1453       F  0.74553985  0.05877309  0.79071844    -0.15700
F1454       F  0.69575425  0.02989933  0.74821770    -0.13300
C1455       C  0.61301530  0.02862779  0.80377303     0.24700
C1456       C  0.63591074  0.02433993  0.83273113    -0.23400
C1457       C  0.65859767  0.99385665  0.83363582     0.19600
C1458       C  0.65841951  0.96823645  0.80646578     0.24600
C1459       C  0.63528711  0.97189575  0.77752535    -0.23300
C1460       C  0.61264336  0.00266313  0.77646755     0.19600
F1461       F  0.59059309  0.00853291  0.74867811    -0.13300
F1462       F  0.59056835  0.05736333  0.80210543    -0.14900
F1463       F  0.68148678  0.94024008  0.80848361    -0.15700
F1464       F  0.68150284  0.98891354  0.86089005    -0.13300
C1465       C  0.61050367  0.98210227  0.55719949     0.24700
C1466       C  0.63851109  0.97645633  0.58019400    -0.23400
C1467       C  0.66539286  0.00060850  0.57832305     0.19600
C1468       C  0.66432602  0.03012755  0.55411181     0.24600
C1469       C  0.63648934  0.03564021  0.53041045    -0.23300
C1470       C  0.60948067  0.01131496  0.53238390     0.19600
F1471       F  0.58207174  0.01558358  0.51029019    -0.13300
F1472       F  0.58368612  0.96065732  0.55975492    -0.15700
F1473       F  0.69111862  0.05243182  0.55349027    -0.15700
F1474       F  0.69284203  0.99581567  0.60036439    -0.13300
C1475       C  0.78527847  0.01529464  0.99708834     0.24700
C1476       C  0.78079436  0.98572060  0.51994019    -0.23400
C1477       C  0.74951935  0.97276088  0.52233174     0.19600
C1478       C  0.72347980  0.98798062  0.50080385     0.24600
C1479       C  0.72812924  0.01695305  0.97710327    -0.23300
C1480       C  0.75940936  0.03070527  0.97572511     0.19600
F1481       F  0.76515749  0.05921897  0.95358972    -0.13300
F1482       F  0.81505226  0.02881500  0.99418481    -0.15700
F1483       F  0.69363558  0.97510130  0.50416697    -0.15700
F1484       F  0.74412056  0.94532102  0.54551867    -0.13300
C1485       C  0.90197000  0.99309200  0.95994845     0.24700
C1486       C  0.87381911  0.97176438  0.96358821    -0.23400
C1487       C  0.84543645  0.98021128  0.94149310     0.19600
C1488       C  0.84519183  0.00912857  0.91679476     0.24600
C1489       C  0.87325903  0.02992028  0.91297412    -0.23300
C1490       C  0.90167341  0.02184880  0.93475408     0.19600
F1491       F  0.92941719  0.04033760  0.93056085    -0.13300
F1492       F  0.92990639  0.98588809  0.98048354    -0.15700
F1493       F  0.81733810  0.01667402  0.89616959    -0.15700
F1494       F  0.81745527  0.96137215  0.94418635    -0.13300
C1495       C  0.85090930  0.00559304  0.66146591     0.24700
C1496       C  0.87519387  0.97738599  0.66141736    -0.23400
C1497       C  0.90071151  0.97689852  0.68822841     0.19600
C1498       C  0.90175209  0.00415266  0.71469803     0.24600
C1499       C  0.87726905  0.03238671  0.71471949    -0.23300
C1500       C  0.85211217  0.03298173  0.68737375     0.19600
F1501       F  0.82799301  0.05953098  0.68579826    -0.13300
F1502       F  0.82556957  0.00672773  0.63623022    -0.15700
F1503       F  0.92653793  0.00238557  0.74044025    -0.15700
F1504       F  0.92503557  0.95090112  0.68835989    -0.13300
C1505       C  0.75696860  0.84147138  0.65526420     0.24700
C1506       C  0.72719692  0.84833401  0.63525453    -0.23400
C1507       C  0.72651193  0.85243160  0.60011110     0.19600
C1508       C  0.75482025  0.85218130  0.58603748     0.24600
C1509       C  0.78473582  0.84792242  0.60629199    -0.23300
C1510       C  0.78540005  0.84146718  0.64110232     0.19600
F1511       F  0.81365243  0.83629781  0.66160194    -0.13300
F1512       F  0.75898868  0.83655230  0.68901205    -0.15700
F1513       F  0.75286516  0.85906185  0.55254726    -0.15700
F1514       F  0.69859245  0.85865491  0.57931456    -0.13300
C1515       C  0.52467442  0.88186511  0.61550257     0.24700
C1516       C  0.53879767  0.91515982  0.63321751    -0.23400
C1517       C  0.52075695  0.95008683  0.63305011     0.19600
C1518       C  0.98880461  0.95082296  0.61736886     0.24600
C1519       C  0.97428052  0.91678418  0.60107910    -0.23300
C1520       C  0.99297150  0.88278466  0.59945085     0.19600
F1521       F  0.98062279  0.85021641  0.58216303    -0.13300
F1522       F  0.54174158  0.84843455  0.61289697    -0.15700
F1523       F  0.97190598  0.98458199  0.61916894    -0.15700
F1524       F  0.53377617  0.98345411  0.64854552    -0.13300
C1525       C  0.62351310  0.28949811  0.97714508     0.24700
C1526       C  0.62214291  0.28803589  0.51209030    -0.23400
C1527       C  0.62459776  0.25120937  0.52821677     0.19600
C1528       C  0.62850843  0.21669532  0.51016442     0.24600
C1529       C  0.63040401  0.21813355  0.97522381    -0.23300
C1530       C  0.62739546  0.25491608  0.95897280     0.19600
F1531       F  0.62894842  0.25773047  0.92563232    -0.13300
F1532       F  0.62132948  0.32445153  0.96030806    -0.15700
F1533       F  0.63028263  0.18180088  0.52707862    -0.15700
F1534       F  0.62246513  0.24825227  0.56142452    -0.13300
C1535       C  0.88101358  0.24987708  0.71096420     0.24700
C1536       C  0.87978024  0.28699103  0.72627059    -0.23400
C1537       C  0.87789265  0.28861717  0.76105102     0.19600
C1538       C  0.87729700  0.25397700  0.77994804     0.24600
C1539       C  0.87818875  0.21684561  0.76455649    -0.23300
C1540       C  0.88046957  0.21526396  0.72985747     0.19600
F1541       F  0.88240557  0.18005976  0.71397131    -0.13300
F1542       F  0.88372344  0.24694246  0.67789700    -0.15700
F1543       F  0.87495589  0.25690736  0.81309759    -0.15700
F1544       F  0.87639581  0.32387099  0.77699070    -0.13300
C1545       C  0.73661821  0.37874701  0.60295872     0.24700
C1546       C  0.71859363  0.41365956  0.60261543    -0.23400
C1547       C  0.73348597  0.44792451  0.61813474     0.19600
C1548       C  0.76538172  0.44710543  0.63386088     0.24600
C1549       C  0.78319756  0.41196453  0.63472330    -0.23300
C1550       C  0.76840166  0.37787212  0.61885458     0.19600
F1551       F  0.78486205  0.34365447  0.61781668    -0.13300
F1552       F  0.72359797  0.34521598  0.58776045    -0.15700
F1553       F  0.77865457  0.48077720  0.64856079    -0.15700
F1554       F  0.71705994  0.48220838  0.61895727    -0.13300
C1555       C  0.97065706  0.34282616  0.59881266     0.24700
C1556       C  0.97182057  0.34576085  0.63392911    -0.23400
C1557       C  0.50202078  0.34567777  0.65437019     0.19600
C1558       C  0.53014823  0.34617369  0.63996772     0.24600
C1559       C  0.52896811  0.34664977  0.60474833    -0.23300
C1560       C  0.99880341  0.34325429  0.58438283     0.19600
F1561       F  0.99627528  0.34282451  0.55038116    -0.13300
F1562       F  0.94212972  0.34126042  0.57805983    -0.15700
F1563       F  0.55860067  0.34814104  0.66082141    -0.15700
F1564       F  0.50451936  0.34785052  0.68832496    -0.13300
C1565       C  0.87237786  0.74897123  0.52927880     0.24700
C1566       C  0.88098144  0.78589567  0.51733693    -0.23400
C1567       C  0.89088364  0.78731218  0.98493580     0.19600
C1568       C  0.89160365  0.75320942  0.96521255     0.24600
C1569       C  0.88231248  0.71643554  0.97683538    -0.23300
C1570       C  0.87288916  0.71491816  0.50945614     0.19600
F1571       F  0.86380163  0.67982526  0.52167338    -0.13300
F1572       F  0.86214221  0.74599361  0.55953857    -0.15700
F1573       F  0.90267512  0.75595099  0.93538263    -0.15700
F1574       F  0.90015276  0.82240978  0.97291532    -0.13300
C1575       C  0.85587514  0.52231363  0.80494775     0.24700
C1576       C  0.88341499  0.52715011  0.82897558    -0.23400
C1577       C  0.91039705  0.50396856  0.82652491     0.19600
C1578       C  0.91012515  0.47674141  0.80049871     0.24600
C1579       C  0.88275784  0.47201126  0.77587722    -0.23300
C1580       C  0.85551425  0.49500509  0.77859264     0.19600
F1581       F  0.82842030  0.49108817  0.75586131    -0.13300
F1582       F  0.82888439  0.54262550  0.80787615    -0.15700
F1583       F  0.93714305  0.45570264  0.79924050    -0.15700
F1584       F  0.93728807  0.50755347  0.84964793    -0.13300
C1585       C  0.85544351  0.50516949  0.52715014     0.24700
C1586       C  0.88235475  0.53012472  0.52621629    -0.23400
C1587       C  0.90949968  0.52528665  0.55088051     0.19600
C1588       C  0.90987928  0.49643165  0.57547482     0.24600
C1589       C  0.88292355  0.47223410  0.57681488    -0.23300
C1590       C  0.85578292  0.47647742  0.55234739     0.19600
F1591       F  0.82911473  0.45422448  0.55373582    -0.13300
F1592       F  0.82922618  0.50626316  0.00276885    -0.15700
F1593       F  0.93665939  0.49254247  0.59862712    -0.15700
F1594       F  0.93626846  0.54786071  0.55106987    -0.13300
C1595       C  0.49602192  0.47491015  0.02101497     0.24700
C1596       C  0.52726138  0.48872376  0.51960312    -0.23400
C1597       C  0.53241296  0.51843510  0.49654635     0.19600
C1598       C  0.00683707  0.53208962  0.97373955     0.24600
C1599       C  0.97564851  0.51734091  0.97418609    -0.23300
C1600       C  0.97049540  0.48871115  0.99816043     0.19600
F1601       F  0.94065350  0.47487312  0.00033939    -0.13300
F1602       F  0.49013912  0.44746215  0.04400866    -0.15700
F1603       F  0.01274660  0.56041478  0.95148420    -0.15700
F1604       F  0.56225206  0.53262698  0.49475298    -0.13300
C1605       C  0.63606748  0.74885306  0.71193474     0.24700
C1606       C  0.63203607  0.78620201  0.72592735    -0.23400
C1607       C  0.62593439  0.78813446  0.75948458     0.19600
C1608       C  0.62385219  0.75372050  0.77844469     0.24600
C1609       C  0.62716824  0.71638408  0.76427309    -0.23300
C1610       C  0.63350658  0.71434835  0.73077310     0.19600
F1611       F  0.63757146  0.67881539  0.71622061    -0.13300
F1612       F  0.64363683  0.74568613  0.68047781    -0.15700
F1613       F  0.61736090  0.75698089  0.81029819    -0.15700
F1614       F  0.62158158  0.82355327  0.77403901    -0.13300
C1615       C  0.64751372  0.49632227  0.96093825     0.24700
C1616       C  0.62047802  0.47199080  0.96294452    -0.23400
C1617       C  0.59365182  0.47508921  0.93759571     0.19600
C1618       C  0.59354583  0.50199844  0.91148429     0.24600
C1619       C  0.62027884  0.52645766  0.90970056    -0.23300
C1620       C  0.64735134  0.52326788  0.93443381     0.19600
F1621       F  0.67411565  0.54499426  0.93218767    -0.13300
F1622       F  0.67386384  0.49418904  0.48434284    -0.15700
F1623       F  0.56707947  0.50412566  0.88771534    -0.15700
F1624       F  0.56688730  0.45272226  0.93818484    -0.13300
C1625       C  0.59423880  0.50215167  0.66138046     0.24700
C1626       C  0.61916407  0.47486964  0.66118718    -0.23400
C1627       C  0.64527190  0.47587183  0.68728326     0.19600
C1628       C  0.64654828  0.50414096  0.71295973     0.24600
C1629       C  0.62181060  0.53210312  0.71272091    -0.23300
C1630       C  0.59580264  0.53084587  0.68630181     0.19600
F1631       F  0.57133510  0.55691787  0.68465816    -0.13300
F1632       F  0.56819367  0.50137250  0.63694391    -0.15700
F1633       F  0.67189561  0.50373882  0.73814810    -0.15700
F1634       F  0.67004428  0.45057880  0.68728956    -0.13300
C1635       C  0.73883630  0.62349370  0.85438010     0.24700
C1636       C  0.72003400  0.58884934  0.85408650    -0.23400
C1637       C  0.73381760  0.55498136  0.87085773     0.19600
C1638       C  0.76557820  0.55580787  0.88722468     0.24600
C1639       C  0.78440298  0.59042428  0.88714588    -0.23300
C1640       C  0.77044301  0.62434082  0.87078913     0.19600
F1641       F  0.78760449  0.65836340  0.86973276    -0.13300
F1642       F  0.72681375  0.65677520  0.83844504    -0.15700
F1643       F  0.77770917  0.52278702  0.90354141    -0.15700
F1644       F  0.71643831  0.52116199  0.87219009    -0.13300
C1645       C  0.98796019  0.61169893  0.87644188     0.24700
C1646       C  0.97540496  0.64721038  0.88674505    -0.23400
C1647       C  0.99109752  0.68316321  0.88174236     0.19600
C1648       C  0.51865377  0.68335740  0.86585364     0.24600
C1649       C  0.53084087  0.64754004  0.85531129    -0.23300
C1650       C  0.51559823  0.61180938  0.86153225     0.19600
F1651       F  0.52776719  0.57664832  0.85345690    -0.13300
F1652       F  0.97349103  0.57653311  0.88115959    -0.15700
F1653       F  0.53362079  0.71818474  0.86126543    -0.15700
F1654       F  0.97946020  0.71784987  0.89161554    -0.13300
C1655       C  0.53277955  0.48747061  0.74066781     0.24700
C1656       C  0.52796000  0.51581555  0.76497868    -0.23400
C1657       C  0.49677515  0.52932217  0.76625731     0.19600
C1658       C  0.97107403  0.51541484  0.74339642     0.24600
C1659       C  0.97581806  0.48684356  0.71929648    -0.23300
C1660       C  0.00696910  0.47314867  0.71804973     0.19600
F1661       F  0.01248555  0.44556620  0.69508247    -0.13300
F1662       F  0.56255440  0.47442879  0.73793042    -0.15700
F1663       F  0.94136695  0.52887874  0.74590125    -0.15700
F1664       F  0.49102768  0.55625610  0.78960686    -0.13300
loop_ 
_geom_bond_atom_site_label_1 
_geom_bond_atom_site_label_2 
_geom_bond_distance 
_geom_bond_site_symmetry_2 
_ccdc_geom_bond_type 
O1          Cr19   1.973       .  S
O1            C9   1.254       .  A
O2          Cr19   2.043       .  S
O2            C3   1.276       .  A
C3            O4   1.252       .  A
C3          C371   1.469       .  S
O4          Cr20   1.935       .  S
O5          Cr20   2.022       .  S
O5            C6   1.266       .  A
C6            O7   1.251       .  A
C6          C408   1.470       .  S
O7          Cr21   1.947       .  S
O8          Cr21   2.028       .  S
O8            C9   1.268       .  A
C9          C401   1.482       .  S
O10         Cr19   2.057       .  S
O10          C18   1.280       .  A
O11         Cr19   1.971       .  S
O11          C12   1.261       .  A
C12          O13   1.268       .  A
C12         C388   1.489       .  S
O13         Cr20   2.021       .  S
O14         Cr20   1.961       .  S
O14          C15   1.259       .  A
C15          O16   1.270       .  A
C15         C381   1.481       .  S
O16         Cr21   2.017       .  S
O17         Cr21   1.939       .  S
O17          C18   1.251       .  A
C18         C361   1.488       .  S
Cr19         O22   1.762       .  S
Cr20         O22   1.765       .  S
Cr21         O22   1.758       .  S
O23         Cr41   1.973       .  S
O23          C31   1.255       .  A
O24         Cr41   2.050       .  S
O24          C25   1.275       .  A
C25          O26   1.253       .  A
C25         C328   1.474       .  S
O26         Cr42   1.940       .  S
O27         Cr42   2.021       .  S
O27          C28   1.267       .  A
C28          O29   1.249       .  A
C28         C351   1.466       .  S
O29         Cr43   1.941       .  S
O30         Cr43   2.028       .  S
O30          C31   1.267       .  A
C31         C398   1.481       .  S
O32         Cr41   2.063       .  S
O32          C40   1.282       .  A
O33         Cr41   1.971       .  S
O33          C34   1.262       .  A
C34          O35   1.270       .  A
C34         C391   1.487       .  S
O35         Cr42   2.021       .  S
O36         Cr42   1.962       .  S
O36         C453   1.257       .  A
C37          O38   1.271       .  A
C37         O452   1.257       .  A
C37         C338   1.482   1_556  S
O38        Cr459   2.018       .  S
O39         Cr43   1.936       .  S
O39          C40   1.250       .  A
C40         C321   1.485       .  S
Cr41         O44   1.759       .  S
Cr42         O44   1.763       .  S
Cr43        O454   2.019       .  S
Cr43         O44   1.756       .  S
O45         Cr63   2.045       .  S
O45          C53   1.278       .  A
O46         Cr63   1.968       .  S
O46          C47   1.260       .  A
C47          O48   1.269       .  A
C47         C301   1.487       .  S
O48         Cr64   2.018       .  S
O49         Cr64   1.971       .  S
O49          C50   1.261       .  A
C50          O51   1.270       .  A
C50         C331   1.488       .  S
O51         Cr65   2.022       .  S
O52         Cr65   1.933       .  S
O52          C53   1.252       .  A
C53         C288   1.481       .  S
O54         Cr63   1.974       .  S
O54          C62   1.257       .  A
O55         Cr63   2.038       .  S
O55          C56   1.273       .  A
C56          O57   1.252       .  A
C56         C341   1.467       .  S
O57         Cr64   1.932       .  S
O58         Cr64   2.018       .  S
O58          C59   1.267       .  A
C59          O60   1.250       .  A
C59         C411   1.468       .  S
O60         Cr65   1.947       .  S
O61         Cr65   2.021       .  S
O61          C62   1.266       .  A
C62         C308   1.495       .  S
Cr63         O66   1.764       .  S
Cr64         O66   1.761       .  S
Cr65         O66   1.754       .  S
O67         Cr85   2.053       .  S
O67          C75   1.281       .  A
O68         Cr85   1.970       .  S
O68          C69   1.260       .  A
C69          O70   1.267       .  A
C69         C298   1.487       .  S
O70         Cr86   2.013       .  S
O71         Cr86   1.967       .  S
O71         C488   1.259   1_554  A
C72          O73   1.272       .  A
C72         O487   1.259       .  A
C72         C368   1.484       .  S
O73        Cr503   2.015       .  S
O74         Cr87   1.936       .  S
O74          C75   1.251       .  A
C75         C278   1.489       .  S
O76         Cr85   1.974       .  S
O76          C84   1.257       .  A
O77         Cr85   2.044       .  S
O77          C78   1.274       .  A
C78          O79   1.252       .  A
C78         C378   1.471       .  S
O79         Cr86   1.929       .  S
O80         Cr86   2.012       .  S
O80          C81   1.265       .  A
C81          O82   1.251       .  A
C81         C348   1.465       .  S
O82         Cr87   1.949       .  S
O83         Cr87   2.020       .  S
O83          C84   1.265       .  A
C84         C311   1.497       .  S
Cr85         O88   1.761       .  S
Cr86         O88   1.763       .  S
Cr87        O489   2.017   1_554  S
Cr87         O88   1.754       .  S
O89        Cr107   2.050       .  S
O89          C97   1.279       .  A
O90        Cr107   1.972       .  S
O90          C91   1.261       .  A
C91          O92   1.268       .  A
C91         C271   1.486       .  S
O92        Cr108   2.014       .  S
O93        Cr108   1.966       .  S
O93         C510   1.259   1_554  A
C94          O95   1.271       .  A
C94         O509   1.259       .  A
C94         C238   1.488       .  S
O95        Cr525   2.025       .  S
O96        Cr109   1.947       .  S
O96          C97   1.253       .  A
C97         C318   1.483       .  S
O98        Cr107   1.979       .  S
O98         C106   1.256       .  A
O99        Cr107   2.040       .  S
O99         C100   1.272       .  A
C100        O101   1.253       .  A
C100        C248   1.473       .  S
O101       Cr108   1.934       .  S
O102       Cr108   2.013       .  S
O102        C103   1.267       .  A
C103        O104   1.253       .  A
C103        C228   1.469       .  S
O104       Cr109   1.955       .  S
O105       Cr109   2.022       .  S
O105        C106   1.271       .  A
C106        C261   1.496       .  S
Cr107       O110   1.766       .  S
Cr108       O110   1.760       .  S
Cr109       O511   2.024   1_554  S
Cr109       O110   1.757       .  S
O111       Cr129   2.059       .  S
O111        C119   1.281       .  A
O112       Cr129   1.969       .  S
O112        C113   1.261       .  A
C113        O114   1.268       .  A
C113        C268   1.487       .  S
O114       Cr130   2.019       .  S
O115       Cr130   1.964       .  S
O115        C116   1.261       .  A
C116        O117   1.273       .  A
C116        C211   1.488       .  S
O117       Cr131   2.030       .  S
O118       Cr131   1.941       .  S
O118        C119   1.253       .  A
C119        C358   1.489       .  S
O120       Cr129   1.971       .  S
O120        C128   1.252       .  A
O121       Cr129   2.045       .  S
O121        C122   1.274       .  A
C122        O123   1.250       .  A
C122        C218   1.466       .  S
O123       Cr130   1.932       .  S
O124       Cr130   2.007       .  S
O124        C125   1.264       .  A
C125        O126   1.249       .  A
C125        C198   1.460       .  S
O126       Cr131   1.946       .  S
O127       Cr131   2.027       .  S
O127        C128   1.273       .  A
C128        C258   1.501       .  S
Cr129       O132   1.761       .  S
Cr130       O132   1.763       .  S
Cr131       O132   1.755       .  S
O133       Cr151   1.976       .  S
O133        C141   1.257       .  A
O134       Cr151   2.044       .  S
O134        C135   1.276       .  A
C135        O136   1.255       .  A
C135        C208   1.481       .  S
O136       Cr152   1.940       .  S
O137       Cr152   2.022       .  S
O137        C138   1.267       .  A
C138        O139   1.253       .  A
C138        C231   1.471       .  S
O139       Cr153   1.949       .  S
O140       Cr153   2.020       .  S
O140        C141   1.266       .  A
C141        C178   1.496       .  S
O142       Cr151   2.054       .  S
O142        C150   1.280       .  A
O143       Cr151   1.966       .  S
O143        C144   1.257       .  A
C144        O145   1.267       .  A
C144        C188   1.487       .  S
O145       Cr152   2.014       .  S
O146       Cr152   1.966       .  S
O146        C563   1.259       .  A
C147        O148   1.270   1_554  A
C147        O562   1.259   1_554  A
C147        C221   1.483       .  S
O148       Cr569   2.016       .  S
O149       Cr153   1.933       .  S
O149        C150   1.251       .  A
C150        C281   1.490       .  S
Cr151       O154   1.764       .  S
Cr152       O154   1.766       .  S
Cr153       O564   2.016       .  S
Cr153       O154   1.757       .  S
O155       Cr173   1.967       .  S
O155        C163   1.258       .  A
O156       Cr173   2.044       .  S
O156        C157   1.274       .  A
C157        O158   1.254       .  A
C157        C241   1.471       .  S
O158       Cr174   1.945       .  S
O159       Cr174   2.018       .  S
O159        C160   1.265       .  A
C160        O161   1.249       .  A
C160        C201   1.462       .  S
O161       Cr175   1.938       .  S
O162       Cr175   2.026       .  S
O162        C163   1.266       .  A
C163        C181   1.499       .  S
O164       Cr173   2.049       .  S
O164        C172   1.278       .  A
O165       Cr173   1.967       .  S
O165        C166   1.260       .  A
C166        O167   1.269       .  A
C166        C191   1.486       .  S
O167       Cr174   2.016       .  S
O168       Cr174   1.968       .  S
O168        C169   1.261       .  A
C169        O170   1.270       .  A
C169        C251   1.484       .  S
O170       Cr175   2.017       .  S
O171       Cr175   1.931       .  S
O171        C172   1.251       .  A
C172        C291   1.483       .  S
Cr173       O176   1.760       .  S
Cr174       O176   1.765       .  S
Cr175       O176   1.753       .  S
C177        C178   1.408       .  A
C177        C182   1.399       .  A
C177        F184   1.357       .  S
C178        C179   1.412       .  A
C179        C180   1.408       .  A
C179        F186   1.359       .  S
C180        C181   1.412       .  A
C180        F185   1.357       .  S
C181        C182   1.412       .  A
C182        F183   1.359       .  S
C187        C188   1.410       .  A
C187       C1024   1.397   1_455  A
C187        F194   1.358       .  S
C188        C189   1.410       .  A
C189       C1022   1.398   1_455  A
C189        F196   1.358       .  S
C190        C191   1.409       .  A
C190       C1021   1.398       .  A
C190        F195   1.358       .  S
C191        C192   1.410       .  A
C192       C1019   1.397       .  A
C192        F193   1.358       .  S
C197        C198   1.407       .  A
C197        C202   1.391       .  A
C197        F204   1.359       .  S
C198        C199   1.404   1_565  A
C199        C200   1.385       .  A
C199        F206   1.358       .  S
C200        C201   1.407       .  A
C200        F205   1.359       .  S
C201        C202   1.407   1_545  A
C202        F203   1.358       .  S
C207        C208   1.404       .  A
C207        C212   1.403       .  A
C207        F214   1.358       .  S
C208        C209   1.410   1_545  A
C209        C210   1.393       .  A
C209        F216   1.359       .  S
C210        C211   1.408       .  A
C210        F215   1.358       .  S
C211        C212   1.415   1_565  A
C212        F213   1.358       .  S
C217        C218   1.402       .  A
C217        C222   1.401   1_565  A
C217        F224   1.358       .  S
C218        C219   1.405   1_565  A
C219        C220   1.391       .  A
C219        F226   1.360   1_545  S
C220        C221   1.411       .  A
C220        F225   1.359       .  S
C221        C222   1.413       .  A
C222        F223   1.357       .  S
C227        C232   1.389       .  A
C227        C644   1.405   1_545  A
C227        F234   1.358       .  S
C228        C229   1.407       .  A
C228        C643   1.405   1_564  A
C229        C230   1.395       .  A
C229        F236   1.358       .  S
C230        C647   1.409   1_564  A
C230        F235   1.358       .  S
C231        C232   1.407       .  A
C231        C646   1.409   1_545  A
C232        F233   1.358       .  S
C237        C238   1.413       .  A
C237        C242   1.404   1_565  A
C237        F244   1.358       .  S
C238        C239   1.411       .  A
C239        C240   1.394   1_565  A
C239        F246   1.358       .  S
C240        C241   1.403       .  A
C240        F245   1.359       .  S
C241        C242   1.403       .  A
C242        F243   1.358       .  S
C247        C248   1.406   1_545  A
C247        C252   1.389       .  A
C247        F254   1.360       .  S
C248        C249   1.404       .  A
C249        C250   1.403   1_565  A
C249        F256   1.358       .  S
C250        C251   1.414       .  A
C250        F255   1.358       .  S
C251        C252   1.410       .  A
C252        F253   1.358       .  S
C257        C258   1.408       .  A
C257        C262   1.408       .  A
C257        F264   1.359       .  S
C258        C259   1.418       .  A
C259        C260   1.402       .  A
C259        F266   1.357       .  S
C260        C261   1.405       .  A
C260        F265   1.359       .  S
C261        C262   1.415       .  A
C262        F263   1.357       .  S
C267        C268   1.410       .  A
C267       C1104   1.396   1_455  A
C267        F274   1.358       .  S
C268        C269   1.410       .  A
C269       C1102   1.401   1_455  A
C269        F276   1.358       .  S
C270        C271   1.411       .  A
C270       C1101   1.401       .  A
C270        F275   1.358       .  S
C271        C272   1.407       .  A
C272       C1099   1.396       .  A
C272        F273   1.358       .  S
C277        C282   1.401       .  A
C277        C694   1.420       .  A
C277        F284   1.358       .  S
C278        C279   1.400       .  A
C278        C693   1.420   1_554  A
C279        C280   1.398       .  A
C279        F286   1.358       .  S
C280        C697   1.419   1_554  A
C280        F285   1.358       .  S
C281        C282   1.402       .  A
C281        C696   1.419       .  A
C282        F283   1.358       .  S
C287        C288   1.401       .  A
C287        C292   1.396       .  A
C287        F294   1.358       .  S
C288        C289   1.416       .  A
C289        C290   1.398       .  A
C289        F296   1.359       .  S
C290        C291   1.402       .  A
C290        F295   1.358       .  S
C291        C292   1.416       .  A
C292        F293   1.359       .  S
C297        C298   1.409       .  A
C297        C302   1.397       .  A
C297        F304   1.358       .  S
C298        C299   1.411       .  A
C299        C300   1.400       .  A
C299        F306   1.358       .  S
C300        C301   1.409       .  A
C300        F305   1.358       .  S
C301        C302   1.410       .  A
C302        F303   1.358       .  S
C307        C308   1.411       .  A
C307        C312   1.403       .  A
C307        F314   1.358       .  S
C308       C1141   1.409       .  A
C309        C310   1.403       .  A
C309       C1140   1.409   1_455  A
C309        F316   1.357       .  S
C310        C311   1.412       .  A
C310        F315   1.358       .  S
C311       C1144   1.410   1_455  A
C312       C1143   1.410       .  A
C312        F313   1.357       .  S
C317        C318   1.401       .  A
C317        C322   1.400       .  A
C317        F324   1.358       .  S
C318        C735   1.414   1_554  A
C319        C320   1.402       .  A
C319        C734   1.414       .  A
C319        F326   1.358       .  S
C320        C321   1.401       .  A
C320        F325   1.358       .  S
C321        C738   1.416       .  A
C322        C737   1.416   1_554  A
C322        F323   1.358       .  S
C327        C328   1.404       .  A
C327        C332   1.405       .  A
C327        F334   1.357       .  S
C328        C329   1.405       .  A
C329        C330   1.393       .  A
C329        F336   1.359       .  S
C330        C331   1.411       .  A
C330        F335   1.358       .  S
C331        C332   1.413       .  A
C332        F333   1.358       .  S
C337        C338   1.416       .  A
C337        C342   1.402       .  A
C337        F760   1.357       .  S
C338        C339   1.408       .  A
C339        C340   1.387       .  A
C339        F346   1.359       .  S
C340        C341   1.405       .  A
C340        F345   1.359       .  S
C341        C342   1.401       .  A
C342        F343   1.358       .  S
F344        C753   1.357       .  S
C347        C764   1.407   1_655  A
C347       C1184   1.390       .  A
C347        F354   1.359       .  S
C348        C349   1.405   1_554  A
C348        C763   1.407   1_455  A
C349       C1598   1.389       .  A
C349        F356   1.359       .  S
C350        C351   1.409       .  A
C350       C1597   1.389       .  A
C350        F355   1.359       .  S
C351        C352   1.406       .  A
C352       C1179   1.390       .  A
C352        F353   1.358       .  S
C357        C358   1.403       .  A
C357        C362   1.403       .  A
C357        F364   1.358       .  S
C358        C359   1.416       .  A
C359        C360   1.401       .  A
C359        F366   1.358       .  S
C360        C361   1.401       .  A
C360        F365   1.357       .  S
C361        C362   1.417       .  A
C362        F363   1.359       .  S
C367        C368   1.414       .  A
C367        C372   1.402       .  A
C367        F790   1.357       .  S
C368        C369   1.409       .  A
C369        C370   1.390       .  A
C369        F376   1.359       .  S
C370        C371   1.406       .  A
C370        F375   1.359       .  S
C371        C372   1.402       .  A
C372        F373   1.358       .  S
F374        C783   1.357       .  S
C377        C378   1.407       .  A
C377        C382   1.388       .  A
C377        F384   1.360       .  S
C378        C379   1.403       .  A
C379        C380   1.402       .  A
C379        F386   1.357       .  S
C380        C381   1.414       .  A
C380        F385   1.358       .  S
C381        C382   1.408       .  A
C382        F383   1.358       .  S
C387        C388   1.408       .  A
C387        C392   1.397       .  A
C387        F394   1.358       .  S
C388        C389   1.412       .  A
C389        C390   1.403       .  A
C389        F396   1.358       .  S
C390        C391   1.409       .  A
C390        F395   1.358       .  S
C391        C392   1.409       .  A
C392        F393   1.358       .  S
C397        C398   1.404       .  A
C397       C1234   1.395       .  A
C397        F404   1.358       .  S
C398        C399   1.408       .  A
C399       C1232   1.414       .  A
C399        F406   1.357       .  S
C400        C401   1.409       .  A
C400       C1231   1.414   1_455  A
C400        F405   1.357       .  S
C401        C402   1.404       .  A
C402       C1229   1.395   1_455  A
C402        F403   1.357       .  S
C407        C408   1.407       .  A
C407       C1244   1.393       .  A
C407        F414   1.358       .  S
C408        C409   1.408   1_455  A
C409       C1242   1.389       .  A
C409        F416   1.358       .  S
C410        C411   1.405       .  A
C410       C1241   1.389       .  A
C410        F415   1.358       .  S
C411        C412   1.409       .  A
C412       C1239   1.393       .  A
C412        F413   1.359       .  S
O417       Cr435   1.973       .  S
O417        C425   1.254       .  A
O418       Cr435   2.043       .  S
O418        C419   1.276       .  A
C419        O420   1.253       .  A
C419        C787   1.469       .  S
O420       Cr436   1.936       .  S
O421       Cr436   2.022       .  S
O421        C422   1.266       .  A
C422        O423   1.251       .  A
C422        C824   1.470       .  S
O423       Cr437   1.948       .  S
O424       Cr437   2.027       .  S
O424        C425   1.268       .  A
C425        C817   1.481       .  S
O426       Cr435   2.056       .  S
O426        C434   1.280       .  A
O427       Cr435   1.972       .  S
O427        C428   1.260       .  A
C428        O429   1.268       .  A
C428        C804   1.489       .  S
O429       Cr436   2.020       .  S
O430       Cr436   1.961       .  S
O430        C431   1.259       .  A
C431        O432   1.271       .  A
C431        C797   1.481       .  S
O432       Cr437   2.017       .  S
O433       Cr437   1.939       .  S
O433        C434   1.251       .  A
C434        C777   1.488       .  S
Cr435       O438   1.763       .  S
Cr436       O438   1.764       .  S
Cr437       O438   1.759       .  S
O439       Cr457   1.972       .  S
O439        C447   1.255       .  A
O440       Cr457   2.049       .  S
O440        C441   1.275       .  A
C441        O442   1.253       .  A
C441        C744   1.474       .  S
O442       Cr458   1.939       .  S
O443       Cr458   2.023       .  S
O443        C444   1.267       .  A
C444        O445   1.249       .  A
C444        C767   1.466       .  S
O445       Cr459   1.941       .  S
O446       Cr459   2.027       .  S
O446        C447   1.267       .  A
C447        C814   1.480       .  S
O448       Cr457   2.063       .  S
O448        C456   1.282       .  A
O449       Cr457   1.970       .  S
O449        C450   1.262       .  A
C450        O451   1.270       .  A
C450        C807   1.487       .  S
O451       Cr458   2.022       .  S
O452       Cr458   1.962       .  S
C453        O454   1.272       .  A
C453        C754   1.482       .  S
O455       Cr459   1.933       .  S
O455        C456   1.249       .  A
C456        C737   1.484       .  S
Cr457       O460   1.759       .  S
Cr458       O460   1.763       .  S
Cr459       O460   1.755       .  S
O461       Cr479   2.048       .  S
O461        C469   1.279       .  A
O462       Cr479   1.969       .  S
O462        C463   1.260       .  A
C463        O464   1.268       .  A
C463        C717   1.487       .  S
O464       Cr480   2.018       .  S
O465       Cr480   1.970       .  S
O465        C466   1.261       .  A
C466        O467   1.270       .  A
C466        C747   1.487       .  S
O467       Cr481   2.020       .  S
O468       Cr481   1.933       .  S
O468        C469   1.252       .  A
C469        C704   1.482       .  S
O470       Cr479   1.974       .  S
O470        C478   1.257       .  A
O471       Cr479   2.039       .  S
O471        C472   1.273       .  A
C472        O473   1.252       .  A
C472        C757   1.467       .  S
O473       Cr480   1.932       .  S
O474       Cr480   2.018       .  S
O474        C475   1.267       .  A
C475        O476   1.250       .  A
C475        C827   1.468       .  S
O476       Cr481   1.949       .  S
O477       Cr481   2.019       .  S
O477        C478   1.265       .  A
C478        C724   1.494       .  S
Cr479       O482   1.765       .  S
Cr480       O482   1.762       .  S
Cr481       O482   1.754       .  S
O483       Cr501   2.052       .  S
O483        C491   1.281       .  A
O484       Cr501   1.970       .  S
O484        C485   1.260       .  A
C485        O486   1.267       .  A
C485        C714   1.487       .  S
O486       Cr502   2.014       .  S
O487       Cr502   1.967       .  S
C488        O489   1.272       .  A
C488        C784   1.484       .  S
O490       Cr503   1.935       .  S
O490        C491   1.251       .  A
C491        C694   1.489       .  S
O492       Cr501   1.973       .  S
O492        C500   1.257       .  A
O493       Cr501   2.044       .  S
O493        C494   1.274       .  A
C494        O495   1.252       .  A
C494        C794   1.471       .  S
O495       Cr502   1.930       .  S
O496       Cr502   2.012       .  S
O496        C497   1.265       .  A
C497        O498   1.251       .  A
C497        C764   1.465       .  S
O498       Cr503   1.949       .  S
O499       Cr503   2.019       .  S
O499        C500   1.265       .  A
C500        C727   1.495       .  S
Cr501       O504   1.761       .  S
Cr502       O504   1.763       .  S
Cr503       O504   1.755       .  S
O505       Cr523   2.052       .  S
O505        C513   1.279       .  A
O506       Cr523   1.973       .  S
O506        C507   1.262       .  A
C507        O508   1.268       .  A
C507        C687   1.486       .  S
O508       Cr524   2.015       .  S
O509       Cr524   1.968       .  S
C510        O511   1.271       .  A
C510        C654   1.487       .  S
O512       Cr525   1.948       .  S
O512        C513   1.253       .  A
C513        C734   1.484       .  S
O514       Cr523   1.981       .  S
O514        C522   1.256       .  A
O515       Cr523   2.041       .  S
O515        C516   1.273       .  A
C516        O517   1.253       .  A
C516        C664   1.475       .  S
O517       Cr524   1.934       .  S
O518       Cr524   2.012       .  S
O518        C519   1.266       .  A
C519        O520   1.253       .  A
C519        C644   1.468       .  S
O520       Cr525   1.954       .  S
O521       Cr525   2.023       .  S
O521        C522   1.272       .  A
C522        C677   1.497       .  S
Cr523       O526   1.766       .  S
Cr524       O526   1.762       .  S
Cr525       O526   1.756       .  S
O527       Cr545   2.059       .  S
O527        C535   1.280       .  A
O528       Cr545   1.970       .  S
O528        C529   1.262       .  A
C529        O530   1.268       .  A
C529        C684   1.486       .  S
O530       Cr546   2.018       .  S
O531       Cr546   1.966       .  S
O531        C532   1.261       .  A
C532        O533   1.273       .  A
C532        C627   1.489       .  S
O533       Cr547   2.030       .  S
O534       Cr547   1.940       .  S
O534        C535   1.253       .  A
C535        C774   1.489       .  S
O536       Cr545   1.970       .  S
O536        C544   1.252       .  A
O537       Cr545   2.044       .  S
O537        C538   1.274       .  A
C538        O539   1.251       .  A
C538        C634   1.467       .  S
O539       Cr546   1.933       .  S
O540       Cr546   2.006       .  S
O540        C541   1.264       .  A
C541        O542   1.249       .  A
C541        C614   1.460       .  S
O542       Cr547   1.946       .  S
O543       Cr547   2.028       .  S
O543        C544   1.273       .  A
C544        C674   1.502       .  S
Cr545       O548   1.762       .  S
Cr546       O548   1.764       .  S
Cr547       O548   1.756       .  S
O549       Cr567   1.976       .  S
O549        C557   1.257       .  A
O550       Cr567   2.045       .  S
O550        C551   1.276       .  A
C551        O552   1.256       .  A
C551        C624   1.483       .  S
O552       Cr568   1.941       .  S
O553       Cr568   2.023       .  S
O553        C554   1.267       .  A
C554        O555   1.253       .  A
C554        C647   1.472       .  S
O555       Cr569   1.948       .  S
O556       Cr569   2.019       .  S
O556        C557   1.266       .  A
C557        C594   1.495       .  S
O558       Cr567   2.055       .  S
O558        C566   1.280       .  A
O559       Cr567   1.966       .  S
O559        C560   1.258       .  A
C560        O561   1.267       .  A
C560        C604   1.486       .  S
O561       Cr568   2.014       .  S
O562       Cr568   1.967       .  S
C563        O564   1.270       .  A
C563        C637   1.483       .  S
O565       Cr569   1.933       .  S
O565        C566   1.251       .  A
C566        C697   1.490       .  S
Cr567       O570   1.764       .  S
Cr568       O570   1.766       .  S
Cr569       O570   1.756       .  S
O571       Cr589   1.966       .  S
O571        C579   1.258       .  A
O572       Cr589   2.044       .  S
O572        C573   1.274       .  A
C573        O574   1.254       .  A
C573        C657   1.470       .  S
O574       Cr590   1.944       .  S
O575       Cr590   2.015       .  S
O575        C576   1.264       .  A
C576        O577   1.249       .  A
C576        C617   1.462       .  S
O577       Cr591   1.940       .  S
O578       Cr591   2.025       .  S
O578        C579   1.266       .  A
C579        C597   1.497       .  S
O580       Cr589   2.049       .  S
O580        C588   1.278       .  A
O581       Cr589   1.966       .  S
O581        C582   1.259       .  A
C582        O583   1.268       .  A
C582        C607   1.485       .  S
O583       Cr590   2.015       .  S
O584       Cr590   1.968       .  S
O584        C585   1.261       .  A
C585        O586   1.270       .  A
C585        C667   1.484       .  S
O586       Cr591   2.016       .  S
O587       Cr591   1.932       .  S
O587        C588   1.251       .  A
C588        C707   1.484       .  S
Cr589       O592   1.760       .  S
Cr590       O592   1.764       .  S
Cr591       O592   1.752       .  S
C593        C594   1.408       .  A
C593        C598   1.399       .  A
C593        F600   1.357       .  S
C594        C595   1.412       .  A
C595        C596   1.407       .  A
C595        F602   1.359       .  S
C596        C597   1.412       .  A
C596        F601   1.357       .  S
C597        C598   1.412       .  A
C598        F599   1.359       .  S
C603        C604   1.410       .  A
C603       C1440   1.396   1_455  A
C603        F610   1.358       .  S
C604        C605   1.410       .  A
C605       C1438   1.398   1_455  A
C605        F612   1.358       .  S
C606       C1437   1.398       .  A
C606        C607   1.409       .  A
C606        F611   1.358       .  S
C607        C608   1.410       .  A
C608       C1435   1.396       .  A
C608        F609   1.358       .  S
C613        C614   1.407       .  A
C613        C618   1.390       .  A
C613        F620   1.359       .  S
C614        C615   1.404   1_565  A
C615        C616   1.386       .  A
C615        F622   1.358       .  S
C616        C617   1.407       .  A
C616        F621   1.359       .  S
C617        C618   1.407   1_545  A
C618        F619   1.358       .  S
C623        C624   1.405       .  A
C623        C628   1.404       .  A
C623        F630   1.358       .  S
C624        C625   1.410   1_545  A
C625        C626   1.394       .  A
C625        F632   1.359       .  S
C626        C627   1.408       .  A
C626        F631   1.358       .  S
C627        C628   1.415   1_565  A
C628        F629   1.358       .  S
C633        C634   1.401       .  A
C633        C638   1.401   1_565  A
C633        F640   1.358       .  S
C634        C635   1.405   1_565  A
C635        C636   1.391       .  A
C635        F642   1.359   1_545  S
C636        C637   1.411       .  A
C636        F641   1.359       .  S
C637        C638   1.413       .  A
C638        F639   1.357       .  S
C643        C648   1.389       .  A
C643        F650   1.358       .  S
C644        C645   1.407       .  A
C645        C646   1.395       .  A
C645        F652   1.359       .  S
C646        F651   1.358       .  S
C647        C648   1.408       .  A
C648        F649   1.358       .  S
C653        C654   1.413       .  A
C653        C658   1.404   1_565  A
C653        F660   1.358       .  S
C654        C655   1.411       .  A
C655        C656   1.393   1_565  A
C655        F662   1.358       .  S
C656        C657   1.403       .  A
C656        F661   1.359       .  S
C657        C658   1.403       .  A
C658        F659   1.358       .  S
C663        C664   1.407   1_545  A
C663        C668   1.389       .  A
C663        F670   1.360       .  S
C664        C665   1.404       .  A
C665        C666   1.403   1_565  A
C665        F672   1.358       .  S
C666        C667   1.414       .  A
C666        F671   1.358       .  S
C667        C668   1.409       .  A
C668        F669   1.358       .  S
C673        C674   1.408       .  A
C673        C678   1.408       .  A
C673        F680   1.359       .  S
C674        C675   1.418       .  A
C675        C676   1.402       .  A
C675        F682   1.357       .  S
C676        C677   1.405       .  A
C676        F681   1.359       .  S
C677        C678   1.415       .  A
C678        F679   1.356       .  S
C683        C684   1.409       .  A
C683       C1520   1.397   1_455  A
C683        F690   1.358       .  S
C684        C685   1.410       .  A
C685       C1518   1.401   1_455  A
C685        F692   1.358       .  S
C686       C1517   1.401       .  A
C686        C687   1.411       .  A
C686        F691   1.358       .  S
C687        C688   1.407       .  A
C688       C1515   1.397       .  A
C688        F689   1.358       .  S
C693        C698   1.402       .  A
C693        F700   1.358       .  S
C694        C695   1.400       .  A
C695        C696   1.398       .  A
C695        F702   1.358       .  S
C696        F701   1.358       .  S
C697        C698   1.402       .  A
C698        F699   1.358       .  S
C703        C704   1.401       .  A
C703        C708   1.397       .  A
C703        F710   1.358       .  S
C704        C705   1.416       .  A
C705        C706   1.398       .  A
C705        F712   1.359       .  S
C706        C707   1.402       .  A
C706        F711   1.358       .  S
C707        C708   1.417       .  A
C708        F709   1.359       .  S
C713        C714   1.408       .  A
C713        C718   1.398       .  A
C713        F720   1.358       .  S
C714        C715   1.411       .  A
C715        C716   1.400       .  A
C715        F722   1.358       .  S
C716        C717   1.409       .  A
C716        F721   1.358       .  S
C717        C718   1.410       .  A
C718        F719   1.358       .  S
C723        C724   1.411       .  A
C723        C728   1.403       .  A
C723        F730   1.359       .  S
C724       C1557   1.409       .  A
C725       C1556   1.409   1_455  A
C725        C726   1.402       .  A
C725        F732   1.357       .  S
C726        C727   1.412       .  A
C726        F731   1.358       .  S
C727       C1560   1.410   1_455  A
C728       C1559   1.410       .  A
C728        F729   1.357       .  S
C733        C734   1.402       .  A
C733        C738   1.402       .  A
C733        F740   1.358       .  S
C735        C736   1.402       .  A
C735        F742   1.358       .  S
C736        C737   1.401       .  A
C736        F741   1.358       .  S
C738        F739   1.358       .  S
C743        C744   1.403       .  A
C743        C748   1.404       .  A
C743        F750   1.357       .  S
C744        C745   1.405       .  A
C745        C746   1.392       .  A
C745        F752   1.359       .  S
C746        C747   1.411       .  A
C746        F751   1.358       .  S
C747        C748   1.413       .  A
C748        F749   1.358       .  S
C753        C754   1.416       .  A
C753        C758   1.402       .  A
C754        C755   1.408       .  A
C755        C756   1.388       .  A
C755        F762   1.358       .  S
C756        C757   1.405       .  A
C756        F761   1.359       .  S
C757        C758   1.401       .  A
C758        F759   1.358       .  S
C763       C1600   1.390   1_554  A
C763        F770   1.359       .  S
C764        C765   1.406       .  A
C765       C1182   1.389       .  A
C765        F772   1.359       .  S
C766       C1181   1.389       .  A
C766        C767   1.409       .  A
C766        F771   1.359       .  S
C767        C768   1.406       .  A
C768       C1595   1.390   1_556  A
C768        F769   1.358   1_556  S
C773        C774   1.403       .  A
C773        C778   1.403       .  A
C773        F780   1.358       .  S
C774        C775   1.416       .  A
C775        C776   1.400       .  A
C775        F782   1.358       .  S
C776        C777   1.400       .  A
C776        F781   1.357       .  S
C777        C778   1.417       .  A
C778        F779   1.359       .  S
C783        C784   1.415       .  A
C783        C788   1.402       .  A
C784        C785   1.409       .  A
C785        C786   1.390       .  A
C785        F792   1.359       .  S
C786        C787   1.405       .  A
C786        F791   1.359       .  S
C787        C788   1.402       .  A
C788        F789   1.358       .  S
C793        C794   1.407       .  A
C793        C798   1.388       .  A
C793        F800   1.360       .  S
C794        C795   1.403       .  A
C795        C796   1.401       .  A
C795        F802   1.357       .  S
C796        C797   1.414       .  A
C796        F801   1.358       .  S
C797        C798   1.408       .  A
C798        F799   1.358       .  S
C803        C804   1.408       .  A
C803        C808   1.397       .  A
C803        F810   1.358       .  S
C804        C805   1.412       .  A
C805        C806   1.402       .  A
C805        F812   1.358       .  S
C806        C807   1.409       .  A
C806        F811   1.358       .  S
C807        C808   1.409       .  A
C808        F809   1.358       .  S
C813        C814   1.404       .  A
C813       C1650   1.394       .  A
C813        F820   1.358       .  S
C814        C815   1.408       .  A
C815       C1648   1.414       .  A
C815        F822   1.357       .  S
C816       C1647   1.414   1_455  A
C816        C817   1.409       .  A
C816        F821   1.357       .  S
C817        C818   1.404       .  A
C818       C1645   1.394   1_455  A
C818        F819   1.357       .  S
C823        C824   1.407       .  A
C823       C1660   1.393       .  A
C823        F830   1.358       .  S
C824        C825   1.408   1_455  A
C825       C1658   1.390       .  A
C825        F832   1.358       .  S
C826       C1657   1.390       .  A
C826        C827   1.405       .  A
C826        F831   1.358       .  S
C827        C828   1.408       .  A
C828       C1655   1.393       .  A
C828        F829   1.359       .  S
O833       Cr851   1.973       .  S
O833        C841   1.254       .  A
O834       Cr851   2.043       .  S
O834        C835   1.276       .  A
C835        O836   1.252       .  A
C835       C1203   1.469       .  S
O836       Cr852   1.935       .  S
O837       Cr852   2.022       .  S
O837        C838   1.266       .  A
C838        O839   1.251       .  A
C838       C1240   1.470       .  S
O839       Cr853   1.947       .  S
O840       Cr853   2.028       .  S
O840        C841   1.268       .  A
C841       C1233   1.482       .  S
O842       Cr851   2.057       .  S
O842        C850   1.280       .  A
O843       Cr851   1.971       .  S
O843        C844   1.261       .  A
C844        O845   1.268       .  A
C844       C1220   1.489       .  S
O845       Cr852   2.021       .  S
O846       Cr852   1.961       .  S
O846        C847   1.259       .  A
C847        O848   1.270       .  A
C847       C1213   1.481       .  S
O848       Cr853   2.017       .  S
O849       Cr853   1.939       .  S
O849        C850   1.251       .  A
C850       C1193   1.488       .  S
Cr851       O854   1.762       .  S
Cr852       O854   1.765       .  S
Cr853       O854   1.758       .  S
O855       Cr873   1.973       .  S
O855        C863   1.255       .  A
O856       Cr873   2.050       .  S
O856        C857   1.275       .  A
C857        O858   1.253       .  A
C857       C1160   1.474       .  S
O858       Cr874   1.940       .  S
O859       Cr874   2.021       .  S
O859        C860   1.267       .  A
C860        O861   1.249       .  A
C860       C1183   1.466       .  S
O861       Cr875   1.941       .  S
O862       Cr875   2.028       .  S
O862        C863   1.267       .  A
C863       C1230   1.481       .  S
O864       Cr873   2.063       .  S
O864        C872   1.282       .  A
O865       Cr873   1.971       .  S
O865        C866   1.262       .  A
C866        O867   1.270       .  A
C866       C1223   1.487       .  S
O867       Cr874   2.021       .  S
O868       Cr874   1.962       .  S
O868       C1285   1.257       .  A
C869       O1284   1.257       .  A
C869        O870   1.271       .  A
C869       C1170   1.482   1_556  S
O870      Cr1291   2.018       .  S
O871       Cr875   1.936       .  S
O871        C872   1.250       .  A
C872       C1153   1.485       .  S
Cr873       O876   1.759       .  S
Cr874       O876   1.763       .  S
Cr875      O1286   2.019       .  S
Cr875       O876   1.756       .  S
O877       Cr895   2.045       .  S
O877        C885   1.278       .  A
O878       Cr895   1.968       .  S
O878        C879   1.260       .  A
C879        O880   1.269       .  A
C879       C1133   1.487       .  S
O880       Cr896   2.018       .  S
O881       Cr896   1.971       .  S
O881        C882   1.261       .  A
C882        O883   1.270       .  A
C882       C1163   1.488       .  S
O883       Cr897   2.022       .  S
O884       Cr897   1.933       .  S
O884        C885   1.252       .  A
C885       C1120   1.481       .  S
O886       Cr895   1.974       .  S
O886        C894   1.257       .  A
O887       Cr895   2.038       .  S
O887        C888   1.273       .  A
C888        O889   1.252       .  A
C888       C1173   1.467       .  S
O889       Cr896   1.932       .  S
O890       Cr896   2.018       .  S
O890        C891   1.267       .  A
C891        O892   1.250       .  A
C891       C1243   1.468       .  S
O892       Cr897   1.947       .  S
O893       Cr897   2.021       .  S
O893        C894   1.266       .  A
C894       C1140   1.495       .  S
Cr895       O898   1.764       .  S
Cr896       O898   1.761       .  S
Cr897       O898   1.754       .  S
O899       Cr917   2.053       .  S
O899        C907   1.281       .  A
O900       Cr917   1.970       .  S
O900        C901   1.260       .  A
C901        O902   1.267       .  A
C901       C1130   1.487       .  S
O902       Cr918   2.013       .  S
O903       Cr918   1.967       .  S
O903       C1320   1.259   1_554  A
C904       O1319   1.259       .  A
C904        O905   1.272       .  A
C904       C1200   1.484       .  S
O905      Cr1335   2.015       .  S
O906       Cr919   1.936       .  S
O906        C907   1.251       .  A
C907       C1110   1.489       .  S
O908       Cr917   1.974       .  S
O908        C916   1.257       .  A
O909       Cr917   2.044       .  S
O909        C910   1.274       .  A
C910        O911   1.252       .  A
C910       C1210   1.471       .  S
O911       Cr918   1.929       .  S
O912       Cr918   2.012       .  S
O912        C913   1.265       .  A
C913        O914   1.251       .  A
C913       C1180   1.465       .  S
O914       Cr919   1.949       .  S
O915       Cr919   2.020       .  S
O915        C916   1.265       .  A
C916       C1143   1.497       .  S
Cr917       O920   1.761       .  S
Cr918       O920   1.763       .  S
Cr919      O1321   2.017   1_554  S
Cr919       O920   1.754       .  S
O921       Cr939   2.050       .  S
O921        C929   1.279       .  A
O922       Cr939   1.972       .  S
O922        C923   1.261       .  A
C923        O924   1.268       .  A
C923       C1103   1.486       .  S
O924       Cr940   2.014       .  S
O925       Cr940   1.966       .  S
O925       C1342   1.259   1_554  A
C926       O1341   1.259       .  A
C926        O927   1.271       .  A
C926       C1070   1.488       .  S
O927      Cr1357   2.025       .  S
O928       Cr941   1.947       .  S
O928        C929   1.253       .  A
C929       C1150   1.483       .  S
O930       Cr939   1.979       .  S
O930        C938   1.256       .  A
O931       Cr939   2.040       .  S
O931        C932   1.272       .  A
C932        O933   1.253       .  A
C932       C1080   1.473       .  S
O933       Cr940   1.934       .  S
O934       Cr940   2.013       .  S
O934        C935   1.267       .  A
C935        O936   1.253       .  A
C935       C1060   1.469       .  S
O936       Cr941   1.955       .  S
O937       Cr941   2.022       .  S
O937        C938   1.271       .  A
C938       C1093   1.496       .  S
Cr939       O942   1.766       .  S
Cr940       O942   1.760       .  S
Cr941      O1343   2.024   1_554  S
Cr941       O942   1.757       .  S
O943       Cr961   2.059       .  S
O943        C951   1.281       .  A
O944       Cr961   1.969       .  S
O944        C945   1.261       .  A
C945        O946   1.268       .  A
C945       C1100   1.487       .  S
O946       Cr962   2.019       .  S
O947       Cr962   1.964       .  S
O947        C948   1.261       .  A
C948        O949   1.273       .  A
C948       C1043   1.488       .  S
O949       Cr963   2.030       .  S
O950       Cr963   1.941       .  S
O950        C951   1.253       .  A
C951       C1190   1.489       .  S
O952       Cr961   1.971       .  S
O952        C960   1.252       .  A
O953       Cr961   2.045       .  S
O953        C954   1.274       .  A
C954        O955   1.250       .  A
C954       C1050   1.466       .  S
O955       Cr962   1.932       .  S
O956       Cr962   2.007       .  S
O956        C957   1.264       .  A
C957        O958   1.249       .  A
C957       C1030   1.460       .  S
O958       Cr963   1.946       .  S
O959       Cr963   2.027       .  S
O959        C960   1.273       .  A
C960       C1090   1.501       .  S
Cr961       O964   1.761       .  S
Cr962       O964   1.763       .  S
Cr963       O964   1.755       .  S
O965       Cr983   1.976       .  S
O965        C973   1.257       .  A
O966       Cr983   2.044       .  S
O966        C967   1.276       .  A
C967        O968   1.255       .  A
C967       C1040   1.481       .  S
O968       Cr984   1.940       .  S
O969       Cr984   2.022       .  S
O969        C970   1.267       .  A
C970        O971   1.253       .  A
C970       C1063   1.471       .  S
O971       Cr985   1.949       .  S
O972       Cr985   2.020       .  S
O972        C973   1.266       .  A
C973       C1010   1.496       .  S
O974       Cr983   2.054       .  S
O974        C982   1.280       .  A
O975       Cr983   1.966       .  S
O975        C976   1.257       .  A
C976        O977   1.267       .  A
C976       C1020   1.487       .  S
O977       Cr984   2.014       .  S
O978       Cr984   1.966       .  S
O978       C1395   1.259       .  A
C979       O1394   1.259   1_554  A
C979        O980   1.270   1_554  A
C979       C1053   1.483       .  S
O980      Cr1401   2.016       .  S
O981       Cr985   1.933       .  S
O981        C982   1.251       .  A
C982       C1113   1.490       .  S
Cr983       O986   1.764       .  S
Cr984       O986   1.766       .  S
Cr985      O1396   2.016       .  S
Cr985       O986   1.757       .  S
O987      Cr1005   1.967       .  S
O987        C995   1.258       .  A
O988      Cr1005   2.044       .  S
O988        C989   1.274       .  A
C989        O990   1.254       .  A
C989       C1073   1.471       .  S
O990      Cr1006   1.945       .  S
O991      Cr1006   2.018       .  S
O991        C992   1.265       .  A
C992        O993   1.249       .  A
C992       C1033   1.462       .  S
O993      Cr1007   1.938       .  S
O994      Cr1007   2.026       .  S
O994        C995   1.266       .  A
C995       C1013   1.499       .  S
O996      Cr1005   2.049       .  S
O996       C1004   1.278       .  A
O997      Cr1005   1.967       .  S
O997        C998   1.260       .  A
C998        O999   1.269       .  A
C998       C1023   1.486       .  S
O999      Cr1006   2.016       .  S
O1000     Cr1006   1.968       .  S
O1000      C1001   1.261       .  A
C1001      O1002   1.270       .  A
C1001      C1083   1.484       .  S
O1002     Cr1007   2.017       .  S
O1003     Cr1007   1.931       .  S
O1003      C1004   1.251       .  A
C1004      C1123   1.483       .  S
Cr1005     O1008   1.759       .  S
Cr1006     O1008   1.765       .  S
Cr1007     O1008   1.753       .  S
C1009      C1010   1.408       .  A
C1009      C1014   1.399       .  A
C1009      F1016   1.357       .  S
C1010      C1011   1.412       .  A
C1011      C1012   1.408       .  A
C1011      F1018   1.359       .  S
C1012      C1013   1.412       .  A
C1012      F1017   1.357       .  S
C1013      C1014   1.412       .  A
C1014      F1015   1.359       .  S
C1019      C1020   1.410       .  A
C1019      F1026   1.358       .  S
C1020      C1021   1.410       .  A
C1021      F1028   1.358       .  S
C1022      C1023   1.409       .  A
C1022      F1027   1.358       .  S
C1023      C1024   1.410       .  A
C1024      F1025   1.358       .  S
C1029      C1030   1.407       .  A
C1029      C1034   1.391       .  A
C1029      F1036   1.359       .  S
C1030      C1031   1.404   1_565  A
C1031      C1032   1.385       .  A
C1031      F1038   1.358       .  S
C1032      C1033   1.407       .  A
C1032      F1037   1.359       .  S
C1033      C1034   1.407   1_545  A
C1034      F1035   1.358       .  S
C1039      C1040   1.404       .  A
C1039      C1044   1.403       .  A
C1039      F1046   1.358       .  S
C1040      C1041   1.410   1_545  A
C1041      C1042   1.393       .  A
C1041      F1048   1.359       .  S
C1042      C1043   1.408       .  A
C1042      F1047   1.358       .  S
C1043      C1044   1.415   1_565  A
C1044      F1045   1.358       .  S
C1049      C1050   1.402       .  A
C1049      C1054   1.401   1_565  A
C1049      F1056   1.358       .  S
C1050      C1051   1.405   1_565  A
C1051      C1052   1.391       .  A
C1051      F1058   1.360   1_545  S
C1052      C1053   1.411       .  A
C1052      F1057   1.359       .  S
C1053      C1054   1.413       .  A
C1054      F1055   1.357       .  S
C1059      C1476   1.405   1_545  A
C1059      C1064   1.389       .  A
C1059      F1066   1.358       .  S
C1060      C1475   1.405   1_564  A
C1060      C1061   1.407       .  A
C1061      C1062   1.395       .  A
C1061      F1068   1.358       .  S
C1062      C1479   1.409   1_564  A
C1062      F1067   1.358       .  S
C1063      C1478   1.409   1_545  A
C1063      C1064   1.407       .  A
C1064      F1065   1.358       .  S
C1069      C1070   1.413       .  A
C1069      C1074   1.404   1_565  A
C1069      F1076   1.358       .  S
C1070      C1071   1.411       .  A
C1071      C1072   1.394   1_565  A
C1071      F1078   1.358       .  S
C1072      C1073   1.403       .  A
C1072      F1077   1.359       .  S
C1073      C1074   1.403       .  A
C1074      F1075   1.358       .  S
C1079      C1080   1.406   1_545  A
C1079      C1084   1.389       .  A
C1079      F1086   1.360       .  S
C1080      C1081   1.404       .  A
C1081      C1082   1.403   1_565  A
C1081      F1088   1.358       .  S
C1082      C1083   1.414       .  A
C1082      F1087   1.358       .  S
C1083      C1084   1.410       .  A
C1084      F1085   1.358       .  S
C1089      C1090   1.408       .  A
C1089      C1094   1.408       .  A
C1089      F1096   1.359       .  S
C1090      C1091   1.418       .  A
C1091      C1092   1.402       .  A
C1091      F1098   1.357       .  S
C1092      C1093   1.405       .  A
C1092      F1097   1.359       .  S
C1093      C1094   1.415       .  A
C1094      F1095   1.357       .  S
C1099      C1100   1.410       .  A
C1099      F1106   1.358       .  S
C1100      C1101   1.410       .  A
C1101      F1108   1.358       .  S
C1102      C1103   1.411       .  A
C1102      F1107   1.358       .  S
C1103      C1104   1.407       .  A
C1104      F1105   1.358       .  S
C1109      C1526   1.420       .  A
C1109      C1114   1.401       .  A
C1109      F1116   1.358       .  S
C1110      C1525   1.420   1_554  A
C1110      C1111   1.400       .  A
C1111      C1112   1.398       .  A
C1111      F1118   1.358       .  S
C1112      C1529   1.419   1_554  A
C1112      F1117   1.358       .  S
C1113      C1528   1.419       .  A
C1113      C1114   1.402       .  A
C1114      F1115   1.358       .  S
C1119      C1120   1.401       .  A
C1119      C1124   1.396       .  A
C1119      F1126   1.358       .  S
C1120      C1121   1.416       .  A
C1121      C1122   1.398       .  A
C1121      F1128   1.359       .  S
C1122      C1123   1.402       .  A
C1122      F1127   1.358       .  S
C1123      C1124   1.416       .  A
C1124      F1125   1.359       .  S
C1129      C1130   1.409       .  A
C1129      C1134   1.397       .  A
C1129      F1136   1.358       .  S
C1130      C1131   1.411       .  A
C1131      C1132   1.400       .  A
C1131      F1138   1.358       .  S
C1132      C1133   1.409       .  A
C1132      F1137   1.358       .  S
C1133      C1134   1.410       .  A
C1134      F1135   1.358       .  S
C1139      C1140   1.411       .  A
C1139      C1144   1.403       .  A
C1139      F1146   1.358       .  S
C1141      C1142   1.403       .  A
C1141      F1148   1.357       .  S
C1142      C1143   1.412       .  A
C1142      F1147   1.358       .  S
C1144      F1145   1.357       .  S
C1149      C1150   1.401       .  A
C1149      C1154   1.400       .  A
C1149      F1156   1.358       .  S
C1150      C1567   1.414   1_554  A
C1151      C1566   1.414       .  A
C1151      C1152   1.402       .  A
C1151      F1158   1.358       .  S
C1152      C1153   1.401       .  A
C1152      F1157   1.358       .  S
C1153      C1570   1.416       .  A
C1154      C1569   1.416   1_554  A
C1154      F1155   1.358       .  S
C1159      C1160   1.404       .  A
C1159      C1164   1.405       .  A
C1159      F1166   1.357       .  S
C1160      C1161   1.405       .  A
C1161      C1162   1.393       .  A
C1161      F1168   1.359       .  S
C1162      C1163   1.411       .  A
C1162      F1167   1.358       .  S
C1163      C1164   1.413       .  A
C1164      F1165   1.358       .  S
C1169      C1170   1.416       .  A
C1169      C1174   1.402       .  A
C1169      F1592   1.357       .  S
C1170      C1171   1.408       .  A
C1171      C1172   1.387       .  A
C1171      F1178   1.359       .  S
C1172      C1173   1.405       .  A
C1172      F1177   1.359       .  S
C1173      C1174   1.401       .  A
C1174      F1175   1.358       .  S
F1176      C1585   1.357       .  S
C1179      C1596   1.407       .  A
C1179      F1186   1.359       .  S
C1180      C1595   1.407       .  A
C1180      C1181   1.405   1_554  A
C1181      F1188   1.359       .  S
C1182      C1183   1.409   1_455  A
C1182      F1187   1.359       .  S
C1183      C1184   1.406       .  A
C1184      F1185   1.358       .  S
C1189      C1190   1.403       .  A
C1189      C1194   1.403       .  A
C1189      F1196   1.358       .  S
C1190      C1191   1.416       .  A
C1191      C1192   1.401       .  A
C1191      F1198   1.358       .  S
C1192      C1193   1.401       .  A
C1192      F1197   1.357       .  S
C1193      C1194   1.417       .  A
C1194      F1195   1.359       .  S
C1199      C1200   1.414       .  A
C1199      C1204   1.402       .  A
C1199      F1622   1.357       .  S
C1200      C1201   1.409       .  A
C1201      C1202   1.390       .  A
C1201      F1208   1.359       .  S
C1202      C1203   1.406       .  A
C1202      F1207   1.359       .  S
C1203      C1204   1.402       .  A
C1204      F1205   1.358       .  S
F1206      C1615   1.357       .  S
C1209      C1210   1.407       .  A
C1209      C1214   1.388       .  A
C1209      F1216   1.360       .  S
C1210      C1211   1.403       .  A
C1211      C1212   1.402       .  A
C1211      F1218   1.357       .  S
C1212      C1213   1.414       .  A
C1212      F1217   1.358       .  S
C1213      C1214   1.408       .  A
C1214      F1215   1.358       .  S
C1219      C1220   1.408       .  A
C1219      C1224   1.397       .  A
C1219      F1226   1.358       .  S
C1220      C1221   1.412       .  A
C1221      C1222   1.403       .  A
C1221      F1228   1.358       .  S
C1222      C1223   1.409       .  A
C1222      F1227   1.358       .  S
C1223      C1224   1.409       .  A
C1224      F1225   1.358       .  S
C1229      C1230   1.404       .  A
C1229      F1236   1.358       .  S
C1230      C1231   1.408       .  A
C1231      F1238   1.357       .  S
C1232      C1233   1.409       .  A
C1232      F1237   1.357       .  S
C1233      C1234   1.404       .  A
C1234      F1235   1.357       .  S
C1239      C1240   1.407       .  A
C1239      F1246   1.358       .  S
C1240      C1241   1.408       .  A
C1241      F1248   1.358       .  S
C1242      C1243   1.405       .  A
C1242      F1247   1.358       .  S
C1243      C1244   1.409   1_655  A
C1244      F1245   1.359       .  S
O1249     Cr1267   1.973       .  S
O1249      C1257   1.254       .  A
O1250     Cr1267   2.043       .  S
O1250      C1251   1.276       .  A
C1251      O1252   1.253       .  A
C1251      C1619   1.469       .  S
O1252     Cr1268   1.936       .  S
O1253     Cr1268   2.022       .  S
O1253      C1254   1.266       .  A
C1254      O1255   1.251       .  A
C1254      C1656   1.470       .  S
O1255     Cr1269   1.948       .  S
O1256     Cr1269   2.027       .  S
O1256      C1257   1.268       .  A
C1257      C1649   1.481       .  S
O1258     Cr1267   2.056       .  S
O1258      C1266   1.280       .  A
O1259     Cr1267   1.972       .  S
O1259      C1260   1.260       .  A
C1260      O1261   1.268       .  A
C1260      C1636   1.489       .  S
O1261     Cr1268   2.020       .  S
O1262     Cr1268   1.961       .  S
O1262      C1263   1.259       .  A
C1263      O1264   1.271       .  A
C1263      C1629   1.481       .  S
O1264     Cr1269   2.017       .  S
O1265     Cr1269   1.939       .  S
O1265      C1266   1.251       .  A
C1266      C1609   1.488       .  S
Cr1267     O1270   1.763       .  S
Cr1268     O1270   1.764       .  S
Cr1269     O1270   1.759       .  S
O1271     Cr1289   1.972       .  S
O1271      C1279   1.255       .  A
O1272     Cr1289   2.049       .  S
O1272      C1273   1.275       .  A
C1273      O1274   1.253       .  A
C1273      C1576   1.474       .  S
O1274     Cr1290   1.939       .  S
O1275     Cr1290   2.023       .  S
O1275      C1276   1.267       .  A
C1276      O1277   1.249       .  A
C1276      C1599   1.466       .  S
O1277     Cr1291   1.941       .  S
O1278     Cr1291   2.027       .  S
O1278      C1279   1.267       .  A
C1279      C1646   1.480       .  S
O1280     Cr1289   2.063       .  S
O1280      C1288   1.282       .  A
O1281     Cr1289   1.970       .  S
O1281      C1282   1.262       .  A
C1282      O1283   1.270       .  A
C1282      C1639   1.487       .  S
O1283     Cr1290   2.022       .  S
O1284     Cr1290   1.962       .  S
C1285      O1286   1.272       .  A
C1285      C1586   1.482       .  S
O1287     Cr1291   1.933       .  S
O1287      C1288   1.249       .  A
C1288      C1569   1.484       .  S
Cr1289     O1292   1.759       .  S
Cr1290     O1292   1.763       .  S
Cr1291     O1292   1.755       .  S
O1293     Cr1311   2.048       .  S
O1293      C1301   1.279       .  A
O1294     Cr1311   1.969       .  S
O1294      C1295   1.260       .  A
C1295      O1296   1.268       .  A
C1295      C1549   1.487       .  S
O1296     Cr1312   2.018       .  S
O1297     Cr1312   1.970       .  S
O1297      C1298   1.261       .  A
C1298      O1299   1.270       .  A
C1298      C1579   1.487       .  S
O1299     Cr1313   2.020       .  S
O1300     Cr1313   1.933       .  S
O1300      C1301   1.252       .  A
C1301      C1536   1.482       .  S
O1302     Cr1311   1.974       .  S
O1302      C1310   1.257       .  A
O1303     Cr1311   2.039       .  S
O1303      C1304   1.273       .  A
C1304      O1305   1.252       .  A
C1304      C1589   1.467       .  S
O1305     Cr1312   1.932       .  S
O1306     Cr1312   2.018       .  S
O1306      C1307   1.267       .  A
C1307      O1308   1.250       .  A
C1307      C1659   1.468       .  S
O1308     Cr1313   1.949       .  S
O1309     Cr1313   2.019       .  S
O1309      C1310   1.265       .  A
C1310      C1556   1.494       .  S
Cr1311     O1314   1.765       .  S
Cr1312     O1314   1.762       .  S
Cr1313     O1314   1.754       .  S
O1315     Cr1333   2.052       .  S
O1315      C1323   1.281       .  A
O1316     Cr1333   1.970       .  S
O1316      C1317   1.260       .  A
C1317      O1318   1.267       .  A
C1317      C1546   1.487       .  S
O1318     Cr1334   2.014       .  S
O1319     Cr1334   1.967       .  S
C1320      O1321   1.272       .  A
C1320      C1616   1.484       .  S
O1322     Cr1335   1.935       .  S
O1322      C1323   1.251       .  A
C1323      C1526   1.489       .  S
O1324     Cr1333   1.973       .  S
O1324      C1332   1.257       .  A
O1325     Cr1333   2.044       .  S
O1325      C1326   1.274       .  A
C1326      O1327   1.252       .  A
C1326      C1626   1.471       .  S
O1327     Cr1334   1.930       .  S
O1328     Cr1334   2.012       .  S
O1328      C1329   1.265       .  A
C1329      O1330   1.251       .  A
C1329      C1596   1.465       .  S
O1330     Cr1335   1.949       .  S
O1331     Cr1335   2.019       .  S
O1331      C1332   1.265       .  A
C1332      C1559   1.495       .  S
Cr1333     O1336   1.761       .  S
Cr1334     O1336   1.763       .  S
Cr1335     O1336   1.755       .  S
O1337     Cr1355   2.052       .  S
O1337      C1345   1.279       .  A
O1338     Cr1355   1.973       .  S
O1338      C1339   1.262       .  A
C1339      O1340   1.268       .  A
C1339      C1519   1.486       .  S
O1340     Cr1356   2.015       .  S
O1341     Cr1356   1.968       .  S
C1342      O1343   1.271       .  A
C1342      C1486   1.487       .  S
O1344     Cr1357   1.948       .  S
O1344      C1345   1.253       .  A
C1345      C1566   1.484       .  S
O1346     Cr1355   1.981       .  S
O1346      C1354   1.256       .  A
O1347     Cr1355   2.041       .  S
O1347      C1348   1.273       .  A
C1348      O1349   1.253       .  A
C1348      C1496   1.475       .  S
O1349     Cr1356   1.934       .  S
O1350     Cr1356   2.012       .  S
O1350      C1351   1.266       .  A
C1351      O1352   1.253       .  A
C1351      C1476   1.468       .  S
O1352     Cr1357   1.954       .  S
O1353     Cr1357   2.023       .  S
O1353      C1354   1.272       .  A
C1354      C1509   1.497       .  S
Cr1355     O1358   1.766       .  S
Cr1356     O1358   1.762       .  S
Cr1357     O1358   1.756       .  S
O1359     Cr1377   2.059       .  S
O1359      C1367   1.280       .  A
O1360     Cr1377   1.970       .  S
O1360      C1361   1.262       .  A
C1361      O1362   1.268       .  A
C1361      C1516   1.486       .  S
O1362     Cr1378   2.018       .  S
O1363     Cr1378   1.966       .  S
O1363      C1364   1.261       .  A
C1364      O1365   1.273       .  A
C1364      C1459   1.489       .  S
O1365     Cr1379   2.030       .  S
O1366     Cr1379   1.940       .  S
O1366      C1367   1.253       .  A
C1367      C1606   1.489       .  S
O1368     Cr1377   1.970       .  S
O1368      C1376   1.252       .  A
O1369     Cr1377   2.044       .  S
O1369      C1370   1.274       .  A
C1370      O1371   1.251       .  A
C1370      C1466   1.467       .  S
O1371     Cr1378   1.933       .  S
O1372     Cr1378   2.006       .  S
O1372      C1373   1.264       .  A
C1373      O1374   1.249       .  A
C1373      C1446   1.460       .  S
O1374     Cr1379   1.946       .  S
O1375     Cr1379   2.028       .  S
O1375      C1376   1.273       .  A
C1376      C1506   1.502       .  S
Cr1377     O1380   1.762       .  S
Cr1378     O1380   1.764       .  S
Cr1379     O1380   1.756       .  S
O1381     Cr1399   1.976       .  S
O1381      C1389   1.257       .  A
O1382     Cr1399   2.045       .  S
O1382      C1383   1.276       .  A
C1383      O1384   1.256       .  A
C1383      C1456   1.483       .  S
O1384     Cr1400   1.941       .  S
O1385     Cr1400   2.023       .  S
O1385      C1386   1.267       .  A
C1386      O1387   1.253       .  A
C1386      C1479   1.472       .  S
O1387     Cr1401   1.948       .  S
O1388     Cr1401   2.019       .  S
O1388      C1389   1.266       .  A
C1389      C1426   1.495       .  S
O1390     Cr1399   2.055       .  S
O1390      C1398   1.280       .  A
O1391     Cr1399   1.966       .  S
O1391      C1392   1.258       .  A
C1392      O1393   1.267       .  A
C1392      C1436   1.486       .  S
O1393     Cr1400   2.014       .  S
O1394     Cr1400   1.967       .  S
C1395      O1396   1.270       .  A
C1395      C1469   1.483       .  S
O1397     Cr1401   1.933       .  S
O1397      C1398   1.251       .  A
C1398      C1529   1.490       .  S
Cr1399     O1402   1.764       .  S
Cr1400     O1402   1.766       .  S
Cr1401     O1402   1.756       .  S
O1403     Cr1421   1.966       .  S
O1403      C1411   1.258       .  A
O1404     Cr1421   2.044       .  S
O1404      C1405   1.274       .  A
C1405      O1406   1.254       .  A
C1405      C1489   1.470       .  S
O1406     Cr1422   1.944       .  S
O1407     Cr1422   2.015       .  S
O1407      C1408   1.264       .  A
C1408      O1409   1.249       .  A
C1408      C1449   1.462       .  S
O1409     Cr1423   1.940       .  S
O1410     Cr1423   2.025       .  S
O1410      C1411   1.266       .  A
C1411      C1429   1.497       .  S
O1412     Cr1421   2.049       .  S
O1412      C1420   1.278       .  A
O1413     Cr1421   1.966       .  S
O1413      C1414   1.259       .  A
C1414      O1415   1.268       .  A
C1414      C1439   1.485       .  S
O1415     Cr1422   2.015       .  S
O1416     Cr1422   1.968       .  S
O1416      C1417   1.261       .  A
C1417      O1418   1.270       .  A
C1417      C1499   1.484       .  S
O1418     Cr1423   2.016       .  S
O1419     Cr1423   1.932       .  S
O1419      C1420   1.251       .  A
C1420      C1539   1.484       .  S
Cr1421     O1424   1.760       .  S
Cr1422     O1424   1.764       .  S
Cr1423     O1424   1.752       .  S
C1425      C1426   1.408       .  A
C1425      C1430   1.399       .  A
C1425      F1432   1.357       .  S
C1426      C1427   1.412       .  A
C1427      C1428   1.407       .  A
C1427      F1434   1.359       .  S
C1428      C1429   1.412       .  A
C1428      F1433   1.357       .  S
C1429      C1430   1.412       .  A
C1430      F1431   1.359       .  S
C1435      C1436   1.410       .  A
C1435      F1442   1.358       .  S
C1436      C1437   1.410       .  A
C1437      F1444   1.358       .  S
C1438      C1439   1.409       .  A
C1438      F1443   1.358       .  S
C1439      C1440   1.410       .  A
C1440      F1441   1.358       .  S
C1445      C1446   1.407       .  A
C1445      C1450   1.390       .  A
C1445      F1452   1.359       .  S
C1446      C1447   1.404   1_565  A
C1447      C1448   1.386       .  A
C1447      F1454   1.358       .  S
C1448      C1449   1.407       .  A
C1448      F1453   1.359       .  S
C1449      C1450   1.407   1_545  A
C1450      F1451   1.358       .  S
C1455      C1456   1.405       .  A
C1455      C1460   1.404       .  A
C1455      F1462   1.358       .  S
C1456      C1457   1.410   1_545  A
C1457      C1458   1.394       .  A
C1457      F1464   1.359       .  S
C1458      C1459   1.408       .  A
C1458      F1463   1.358       .  S
C1459      C1460   1.415   1_565  A
C1460      F1461   1.358       .  S
C1465      C1466   1.401       .  A
C1465      C1470   1.401   1_565  A
C1465      F1472   1.358       .  S
C1466      C1467   1.405   1_565  A
C1467      C1468   1.391       .  A
C1467      F1474   1.359   1_545  S
C1468      C1469   1.411       .  A
C1468      F1473   1.359       .  S
C1469      C1470   1.413       .  A
C1470      F1471   1.357       .  S
C1475      C1480   1.389       .  A
C1475      F1482   1.358       .  S
C1476      C1477   1.407       .  A
C1477      C1478   1.395       .  A
C1477      F1484   1.359       .  S
C1478      F1483   1.358       .  S
C1479      C1480   1.408       .  A
C1480      F1481   1.358       .  S
C1485      C1486   1.413       .  A
C1485      C1490   1.404   1_565  A
C1485      F1492   1.358       .  S
C1486      C1487   1.411       .  A
C1487      C1488   1.393   1_565  A
C1487      F1494   1.358       .  S
C1488      C1489   1.403       .  A
C1488      F1493   1.359       .  S
C1489      C1490   1.403       .  A
C1490      F1491   1.358       .  S
C1495      C1496   1.407   1_545  A
C1495      C1500   1.389       .  A
C1495      F1502   1.360       .  S
C1496      C1497   1.404       .  A
C1497      C1498   1.403   1_565  A
C1497      F1504   1.358       .  S
C1498      C1499   1.414       .  A
C1498      F1503   1.358       .  S
C1499      C1500   1.409       .  A
C1500      F1501   1.358       .  S
C1505      C1506   1.408       .  A
C1505      C1510   1.408       .  A
C1505      F1512   1.359       .  S
C1506      C1507   1.418       .  A
C1507      C1508   1.402       .  A
C1507      F1514   1.357       .  S
C1508      C1509   1.405       .  A
C1508      F1513   1.359       .  S
C1509      C1510   1.415       .  A
C1510      F1511   1.356       .  S
C1515      C1516   1.409       .  A
C1515      F1522   1.358       .  S
C1516      C1517   1.410       .  A
C1517      F1524   1.358       .  S
C1518      C1519   1.411       .  A
C1518      F1523   1.358       .  S
C1519      C1520   1.407       .  A
C1520      F1521   1.358       .  S
C1525      C1530   1.402       .  A
C1525      F1532   1.358       .  S
C1526      C1527   1.400       .  A
C1527      C1528   1.398       .  A
C1527      F1534   1.358       .  S
C1528      F1533   1.358       .  S
C1529      C1530   1.402       .  A
C1530      F1531   1.358       .  S
C1535      C1536   1.401       .  A
C1535      C1540   1.397       .  A
C1535      F1542   1.358       .  S
C1536      C1537   1.416       .  A
C1537      C1538   1.398       .  A
C1537      F1544   1.359       .  S
C1538      C1539   1.402       .  A
C1538      F1543   1.358       .  S
C1539      C1540   1.417       .  A
C1540      F1541   1.359       .  S
C1545      C1546   1.408       .  A
C1545      C1550   1.398       .  A
C1545      F1552   1.358       .  S
C1546      C1547   1.411       .  A
C1547      C1548   1.400       .  A
C1547      F1554   1.358       .  S
C1548      C1549   1.409       .  A
C1548      F1553   1.358       .  S
C1549      C1550   1.410       .  A
C1550      F1551   1.358       .  S
C1555      C1556   1.411       .  A
C1555      C1560   1.403       .  A
C1555      F1562   1.359       .  S
C1557      C1558   1.402       .  A
C1557      F1564   1.357       .  S
C1558      C1559   1.412       .  A
C1558      F1563   1.358       .  S
C1560      F1561   1.357       .  S
C1565      C1566   1.402       .  A
C1565      C1570   1.402       .  A
C1565      F1572   1.358       .  S
C1567      C1568   1.402       .  A
C1567      F1574   1.358       .  S
C1568      C1569   1.401       .  A
C1568      F1573   1.358       .  S
C1570      F1571   1.358       .  S
C1575      C1576   1.403       .  A
C1575      C1580   1.404       .  A
C1575      F1582   1.357       .  S
C1576      C1577   1.405       .  A
C1577      C1578   1.392       .  A
C1577      F1584   1.359       .  S
C1578      C1579   1.411       .  A
C1578      F1583   1.358       .  S
C1579      C1580   1.413       .  A
C1580      F1581   1.358       .  S
C1585      C1586   1.416       .  A
C1585      C1590   1.402       .  A
C1586      C1587   1.408       .  A
C1587      C1588   1.388       .  A
C1587      F1594   1.358       .  S
C1588      C1589   1.405       .  A
C1588      F1593   1.359       .  S
C1589      C1590   1.401       .  A
C1590      F1591   1.358       .  S
C1595      F1602   1.359       .  S
C1596      C1597   1.406       .  A
C1597      F1604   1.359       .  S
C1598      C1599   1.409   1_455  A
C1598      F1603   1.359       .  S
C1599      C1600   1.406       .  A
C1600      F1601   1.358   1_556  S
C1605      C1606   1.403       .  A
C1605      C1610   1.403       .  A
C1605      F1612   1.358       .  S
C1606      C1607   1.416       .  A
C1607      C1608   1.400       .  A
C1607      F1614   1.358       .  S
C1608      C1609   1.400       .  A
C1608      F1613   1.357       .  S
C1609      C1610   1.417       .  A
C1610      F1611   1.359       .  S
C1615      C1616   1.415       .  A
C1615      C1620   1.402       .  A
C1616      C1617   1.409       .  A
C1617      C1618   1.390       .  A
C1617      F1624   1.359       .  S
C1618      C1619   1.405       .  A
C1618      F1623   1.359       .  S
C1619      C1620   1.402       .  A
C1620      F1621   1.358       .  S
C1625      C1626   1.407       .  A
C1625      C1630   1.388       .  A
C1625      F1632   1.360       .  S
C1626      C1627   1.403       .  A
C1627      C1628   1.401       .  A
C1627      F1634   1.357       .  S
C1628      C1629   1.414       .  A
C1628      F1633   1.358       .  S
C1629      C1630   1.408       .  A
C1630      F1631   1.358       .  S
C1635      C1636   1.408       .  A
C1635      C1640   1.397       .  A
C1635      F1642   1.358       .  S
C1636      C1637   1.412       .  A
C1637      C1638   1.402       .  A
C1637      F1644   1.358       .  S
C1638      C1639   1.409       .  A
C1638      F1643   1.358       .  S
C1639      C1640   1.409       .  A
C1640      F1641   1.358       .  S
C1645      C1646   1.404       .  A
C1645      F1652   1.358       .  S
C1646      C1647   1.408       .  A
C1647      F1654   1.357       .  S
C1648      C1649   1.409       .  A
C1648      F1653   1.357       .  S
C1649      C1650   1.404       .  A
C1650      F1651   1.357       .  S
C1655      C1656   1.407       .  A
C1655      F1662   1.358       .  S
C1656      C1657   1.408       .  A
C1657      F1664   1.358       .  S
C1658      C1659   1.405       .  A
C1658      F1663   1.358       .  S
C1659      C1660   1.408   1_655  A
C1660      F1661   1.359       .  S
