geometry optimzed in LAMMPS
_audit_creation_date              2020-12-01 
_audit_creation_method            'lammps2cif' 
_symmetry_space_group_name_H-M    'P1' 
_symmetry_Int_Tables_number       1 
_symmetry_cell_setting            triclinic 
loop_ 
_symmetry_equiv_pos_as_xyz 
  x,y,z 
_cell_length_a                    67.20011513 
_cell_length_b                    34.6353004353833 
_cell_length_c                    69.47123067028342 
_cell_angle_alpha                 90.00920112452064 
_cell_angle_beta                  89.98897529795998 
_cell_angle_gamma                 90.04231437726246 
loop_ 
_atom_site_label 
_atom_site_type_symbol 
_atom_site_fract_x 
_atom_site_fract_y 
_atom_site_fract_z 
_atom_site_charge 
Zn1        Zn  0.61055496  0.25105165  0.85968027     1.49700
Zn2        Zn  0.64083821  0.31854070  0.85620546     1.49400
Zn3        Zn  0.61004306  0.31550357  0.89161819     1.49100
Zn4        Zn  0.64698386  0.25570324  0.88930934     1.49500
O5          O  0.62716815  0.28527251  0.87451940    -1.82100
O6          O  0.61532624  0.25492465  0.83128713    -0.72700
O7          O  0.63170719  0.37294233  0.85904886    -0.72600
O8          O  0.58060136  0.30103208  0.88869389    -0.72100
O9          O  0.63819943  0.30071265  0.82872083    -0.72800
O10         O  0.58166134  0.25671457  0.86574309    -0.72400
O11         O  0.61413692  0.37251293  0.88620787    -0.72900
O12         O  0.64128096  0.26091889  0.91775104    -0.72300
O13         O  0.66980970  0.32149818  0.86223489    -0.73100
O14         O  0.61750641  0.30523346  0.91929711    -0.72500
O15         O  0.67475109  0.27892915  0.88566121    -0.72900
O16         O  0.64580502  0.19806273  0.88225807    -0.72800
O17         O  0.61778130  0.19749355  0.86536633    -0.72600
C18         C  0.62737987  0.27463790  0.82117414     0.79200
C19         C  0.62268789  0.39065784  0.87251138     0.79600
C20         C  0.57182963  0.27673345  0.87777712     0.78600
C21         C  0.62973309  0.28249028  0.92755050     0.79000
C22         C  0.68114051  0.30543453  0.87447548     0.80100
C23         C  0.63224270  0.17982883  0.87308326     0.79200
Zn24       Zn  0.63597516  0.82201873  0.88596554     1.49700
Zn25       Zn  0.60821244  0.81298838  0.84915418     1.49400
Zn26       Zn  0.64647299  0.75627115  0.85585153     1.49100
Zn27       Zn  0.60842079  0.75181057  0.88373371     1.49500
O28         O  0.62476151  0.78555893  0.86821890    -1.82100
O29         O  0.62653727  0.87474731  0.88063479    -0.72700
O30         O  0.61619708  0.79619844  0.82220054    -0.72600
O31         O  0.67395203  0.78169550  0.86093315    -0.72100
O32         O  0.61197037  0.87148013  0.85193350    -0.72800
O33         O  0.66493614  0.82613712  0.88219380    -0.72400
O34         O  0.64156723  0.75608793  0.82712850    -0.72900
O35         O  0.61674378  0.69805505  0.87968682    -0.72300
O36         O  0.57868492  0.79844495  0.85232763    -0.73100
O37         O  0.64524935  0.69922293  0.86361179    -0.72500
O38         O  0.58042259  0.75465404  0.87557133    -0.72900
O39         O  0.60954071  0.76153952  0.91231151    -0.72800
O40         O  0.63070998  0.81023788  0.91351386    -0.72600
C41         C  0.61886625  0.89098328  0.86605189     0.79200
C42         C  0.62928546  0.77272344  0.81586313     0.79600
C43         C  0.67814214  0.81047720  0.87175320     0.78600
C44         C  0.63134804  0.68059681  0.87207790     0.79000
C45         C  0.57042086  0.77343435  0.86324383     0.80100
C46         C  0.61969769  0.78571293  0.92193742     0.79200
Zn47       Zn  0.61636116  0.24149713  0.63992254     1.49700
Zn48       Zn  0.65236281  0.23109985  0.61019372     1.49400
Zn49       Zn  0.64345973  0.17101065  0.64474527     1.49100
Zn50       Zn  0.61389785  0.17419503  0.60908423     1.49500
O51         O  0.63168115  0.20453021  0.62557815    -1.82100
O52         O  0.62270297  0.29390548  0.63087366    -0.72700
O53         O  0.67999945  0.20784475  0.61610914    -0.72600
O54         O  0.64050002  0.18878846  0.67217032    -0.72100
O55         O  0.65099078  0.29006463  0.61435536    -0.72800
O56         O  0.62185556  0.24062157  0.66824509    -0.72400
O57         O  0.67202130  0.16711242  0.63952657    -0.72900
O58         O  0.61707362  0.11714738  0.61470165    -0.72300
O59         O  0.64656803  0.22273047  0.58163240    -0.73100
O60         O  0.63374163  0.11692947  0.64223283    -0.72500
O61         O  0.62021740  0.18387129  0.58094852    -0.72900
O62         O  0.58488865  0.18816495  0.61391004    -0.72800
O63         O  0.58733109  0.23337526  0.63637568    -0.72600
C64         C  0.63686430  0.30987377  0.62175457     0.79200
C65         C  0.68476562  0.18137627  0.62810281     0.79600
C66         C  0.63147742  0.21783410  0.67912652     0.78600
C67         C  0.62471182  0.09901784  0.62886263     0.79000
C68         C  0.63343850  0.20378679  0.57226410     0.80100
C69         C  0.57682584  0.21201566  0.62552856     0.79200
Zn70       Zn  0.61574120  0.74025909  0.60508178     1.49700
Zn71       Zn  0.64292285  0.66848126  0.60347148     1.49400
Zn72       Zn  0.65134785  0.73253276  0.63560445     1.49100
Zn73       Zn  0.61224872  0.67731491  0.63846333     1.49500
O74         O  0.63055631  0.70464514  0.62098937    -1.82100
O75         O  0.61933745  0.73223722  0.57656143    -0.72700
O76         O  0.67190415  0.66570692  0.60858050    -0.72600
O77         O  0.64951483  0.79076895  0.63117103    -0.72100
O78         O  0.63877102  0.68089821  0.57555836    -0.72800
O79         O  0.62332679  0.79356394  0.61172601    -0.72400
O80         O  0.67899457  0.71023395  0.63046612    -0.72900
O81         O  0.61861268  0.69160916  0.66601581    -0.72300
O82         O  0.63347489  0.61505931  0.60834202    -0.73100
O83         O  0.64628545  0.72668898  0.66407882    -0.72500
O84         O  0.61543168  0.61864163  0.63518454    -0.72900
O85         O  0.58339940  0.69523968  0.63448534    -0.72800
O86         O  0.58696633  0.73870478  0.61135110    -0.72600
C87         C  0.62898077  0.70714969  0.56698423     0.79200
C88         C  0.68429375  0.68225688  0.61965418     0.79600
C89         C  0.63627211  0.81005456  0.62218237     0.78600
C90         C  0.63245595  0.71113657  0.67392607     0.79000
C91         C  0.62400136  0.59900305  0.62199092     0.80100
C92         C  0.57610246  0.72120450  0.62350060     0.79200
Zn93       Zn  0.35910902  0.17148547  0.85279647     1.49700
Zn94       Zn  0.34846092  0.23046593  0.88694949     1.49400
Zn95       Zn  0.38747088  0.17559978  0.88969214     1.49100
Zn96       Zn  0.38646736  0.24225104  0.85896959     1.49500
O97         O  0.37023011  0.20506945  0.87239278    -1.82100
O98         O  0.32980146  0.16981106  0.85507187    -0.72700
O99         O  0.35263202  0.22255386  0.91576459    -0.72600
O100        O  0.38385648  0.11843336  0.88487986    -0.72100
O101        O  0.32141661  0.20702685  0.87974497    -0.72800
O102        O  0.36679071  0.11689629  0.85749928    -0.72400
O103        O  0.37970474  0.18593396  0.91713832    -0.72900
O104        O  0.41457398  0.24162593  0.86786891    -0.72300
O105        O  0.34896790  0.28894872  0.88239160    -0.73100
O106        O  0.41669121  0.19143484  0.88750915    -0.72500
O107        O  0.37642271  0.29410201  0.86469927    -0.72900
O108        O  0.38654303  0.23572484  0.83022916    -0.72800
O109        O  0.36609802  0.18642044  0.82563196    -0.72600
C110        C  0.31677584  0.18287165  0.86658373     0.79200
C111        C  0.36587760  0.20471394  0.92546181     0.79600
C112        C  0.37534568  0.09972182  0.87137570     0.78600
C113        C  0.42472339  0.21994375  0.87884614     0.79000
C114        C  0.36205998  0.30937814  0.87378156     0.80100
C115        C  0.37743069  0.21268896  0.81903637     0.79200
Zn116      Zn  0.38618938  0.67400305  0.85458764     1.49700
Zn117      Zn  0.38554787  0.73848033  0.88720604     1.49400
Zn118      Zn  0.34929550  0.73463185  0.85727664     1.49100
Zn119      Zn  0.35560645  0.67155315  0.88981719     1.49500
O120        O  0.36915042  0.70475567  0.87184049    -1.82100
O121        O  0.41558597  0.68674941  0.85869287    -0.72700
O122        O  0.37713208  0.79238676  0.88339530    -0.72600
O123        O  0.35636533  0.73163685  0.82896755    -0.72100
O124        O  0.41370900  0.73539671  0.87928022    -0.72800
O125        O  0.38068576  0.68854139  0.82685783    -0.72400
O126        O  0.35056108  0.79188848  0.86451081    -0.72900
O127        O  0.32674194  0.67034248  0.88463664    -0.72300
O128        O  0.38443798  0.72798028  0.91560781    -0.73100
O129        O  0.32117499  0.71210176  0.86095564    -0.72500
O130        O  0.36046170  0.68431460  0.91758115    -0.72900
O131        O  0.36312024  0.61737886  0.88536649    -0.72800
O132        O  0.38098621  0.61635172  0.85854862    -0.72600
C133        C  0.42388255  0.71360385  0.86839335     0.79200
C134        C  0.36341650  0.81018837  0.87453646     0.79600
C135        C  0.36890820  0.71263630  0.81894958     0.78600
C136        C  0.31514543  0.68583313  0.87248418     0.79000
C137        C  0.37305458  0.70655164  0.92555966     0.80100
C138        C  0.37174368  0.59878697  0.87202972     0.79200
Zn139      Zn  0.36304762  0.33079116  0.61013835     1.49700
Zn140      Zn  0.38998266  0.25786648  0.60961338     1.49400
Zn141      Zn  0.39575478  0.32002329  0.64329173     1.49100
Zn142      Zn  0.35589957  0.26600592  0.64140106     1.49500
O143        O  0.37626471  0.29368064  0.62641637    -1.82100
O144        O  0.36414833  0.31733106  0.58180566    -0.72700
O145        O  0.41915150  0.25828142  0.61427555    -0.72600
O146        O  0.39373773  0.37887978  0.64031938    -0.72100
O147        O  0.38483212  0.26750056  0.58139669    -0.72800
O148        O  0.37482124  0.38243981  0.61417130    -0.72400
O149        O  0.42406980  0.30242573  0.63696989    -0.72900
O150        O  0.36461967  0.26566593  0.66893633    -0.72300
O151        O  0.38181643  0.20448355  0.61590447    -0.73100
O152        O  0.39126469  0.30367036  0.67113462    -0.72500
O153        O  0.35553368  0.20848874  0.63507882    -0.72900
O154        O  0.32832335  0.29214725  0.63952458    -0.72800
O155        O  0.33479212  0.33815501  0.61814535    -0.72600
C156        C  0.37391938  0.29180014  0.57260207     0.79200
C157        C  0.43066768  0.27652396  0.62556151     0.79600
C158        C  0.38528151  0.39861724  0.62710482     0.78600
C159        C  0.37871561  0.28051043  0.67868566     0.79000
C160        C  0.36825084  0.18843071  0.62579586     0.80100
C161        C  0.32295158  0.32175989  0.62983576     0.79200
Zn162      Zn  0.39179306  0.76184106  0.60857434     1.49700
Zn163      Zn  0.35454985  0.76266214  0.63780044     1.49400
Zn164      Zn  0.39200955  0.82106741  0.64373824     1.49100
Zn165      Zn  0.36249286  0.83038970  0.60821740     1.49500
O166        O  0.37526079  0.79376505  0.62490238    -1.82100
O167        O  0.38594215  0.70698009  0.61449136    -0.72700
O168        O  0.36027253  0.76218267  0.66616186    -0.72600
O169        O  0.42145840  0.81045659  0.63898314    -0.72100
O170        O  0.35728383  0.70577345  0.63039621    -0.72800
O171        O  0.42075622  0.77030487  0.61406936    -0.72400
O172        O  0.38613517  0.80100089  0.67060881    -0.72900
O173        O  0.37094191  0.88370591  0.61423078    -0.72300
O174        O  0.32620439  0.78491247  0.63375140    -0.73100
O175        O  0.38687664  0.87923369  0.64220057    -0.72500
O176        O  0.33373316  0.83157331  0.61324047    -0.72900
O177        O  0.36563827  0.81890552  0.58012733    -0.72800
O178        O  0.38675113  0.76985424  0.58009255    -0.72600
C179        C  0.37189246  0.68829080  0.62247535     0.79200
C180        C  0.37326851  0.77731217  0.67717184     0.79600
C181        C  0.43040033  0.78939304  0.62665153     0.78600
C182        C  0.37870339  0.89936886  0.62897515     0.79000
C183        C  0.32101863  0.81355126  0.62328159     0.80100
C184        C  0.37567814  0.79361914  0.57111986     0.79200
Zn185      Zn  0.86109679  0.07843359  0.60986558     1.49700
Zn186      Zn  0.89237330  0.06716510  0.64433846     1.49400
Zn187      Zn  0.85401326  0.01110266  0.63974523     1.49100
Zn188      Zn  0.88910979  0.00698243  0.60947154     1.49500
O189        O  0.87426593  0.04105912  0.62611759    -1.82100
O190        O  0.86809633  0.13125775  0.61798437    -0.72700
O191        O  0.88562788  0.05126435  0.67168492    -0.72600
O192        O  0.82631388  0.03181980  0.63529931    -0.72100
O193        O  0.88941214  0.12570998  0.64234357    -0.72800
O194        O  0.83176451  0.07646459  0.61299440    -0.72400
O195        O  0.85897800  0.01434036  0.66789447    -0.72900
O196        O  0.88219972  0.95220895  0.61468220    -0.72300
O197        O  0.92119084  0.05179921  0.63941223    -0.73100
O198        O  0.85575390  0.95413775  0.63371420    -0.72500
O199        O  0.91804561  0.01160374  0.61470561    -0.72900
O200        O  0.88450029  0.01771632  0.58144030    -0.72800
O201        O  0.86697404  0.07187835  0.58190755    -0.72600
C202        C  0.87872199  0.14619850  0.63112314     0.79200
C203        C  0.87186749  0.03015888  0.67870810     0.79600
C204        C  0.82006054  0.05820302  0.62407361     0.78600
C205        C  0.86879301  0.93514553  0.62437634     0.79000
C206        C  0.92881295  0.02922514  0.62691584     0.80100
C207        C  0.87582390  0.04524157  0.57271434     0.79200
Zn208      Zn  0.85373557  0.51134625  0.62320857     1.49700
Zn209      Zn  0.89077195  0.56951080  0.62140898     1.49400
Zn210      Zn  0.85956704  0.57514407  0.65627572     1.49100
Zn211      Zn  0.88926245  0.50528739  0.65354869     1.49500
O212        O  0.87326172  0.54039991  0.63849966    -1.82100
O213        O  0.85978520  0.51591175  0.59495544    -0.72700
O214        O  0.88694191  0.62652466  0.62562375    -0.72600
O215        O  0.83041628  0.57643898  0.65022988    -0.72100
O216        O  0.88444164  0.55821013  0.59377843    -0.72800
O217        O  0.82613818  0.53392819  0.62663679    -0.72400
O218        O  0.86804121  0.62998889  0.65180822    -0.72900
O219        O  0.88488584  0.51193933  0.68173475    -0.72300
O220        O  0.91973447  0.55469792  0.62487348    -0.73100
O221        O  0.86347951  0.56031430  0.68433095    -0.72500
O222        O  0.91831868  0.51026877  0.64785248    -0.72900
O223        O  0.88174963  0.45124242  0.64769662    -0.72800
O224        O  0.85483021  0.45400862  0.62920170    -0.72600
C225        C  0.87215728  0.53596766  0.58534692     0.79200
C226        C  0.87772426  0.64623508  0.63829176     0.79600
C227        C  0.81939988  0.56021205  0.63771802     0.78600
C228        C  0.87413279  0.53402449  0.69198492     0.79000
C229        C  0.92820668  0.53020510  0.63582435     0.80100
C230        C  0.86779949  0.43469588  0.63852019     0.79200
Zn231      Zn  0.88179300  0.50432460  0.90328788     1.49700
Zn232      Zn  0.85559200  0.43022280  0.90485946     1.49400
Zn233      Zn  0.84658528  0.49270101  0.87264529     1.49100
Zn234      Zn  0.88622799  0.44005629  0.87026554     1.49500
O235        O  0.86762502  0.46699157  0.88754599    -1.82100
O236        O  0.87762033  0.49639869  0.93181679    -0.72700
O237        O  0.82645570  0.42608209  0.90014829    -0.72600
O238        O  0.84586676  0.55027458  0.87854192    -0.72100
O239        O  0.86061342  0.44168245  0.93286325    -0.72800
O240        O  0.87310871  0.55751353  0.89635925    -0.72400
O241        O  0.81957139  0.46544617  0.87590027    -0.72900
O242        O  0.88185286  0.45821386  0.84277302    -0.72300
O243        O  0.86459223  0.37711657  0.89872060    -0.73100
O244        O  0.85384879  0.49182133  0.84457325    -0.72500
O245        O  0.88206621  0.38124781  0.87175192    -0.72900
O246        O  0.91486980  0.45422902  0.87708032    -0.72800
O247        O  0.91113165  0.50109234  0.89858333    -0.72600
C248        C  0.86935604  0.46946213  0.94138429     0.79200
C249        C  0.81433280  0.43896157  0.88766470     0.79600
C250        C  0.85866559  0.57178310  0.88690363     0.78600
C251        C  0.86836503  0.47863045  0.83481660     0.79000
C252        C  0.87334012  0.36102512  0.88463165     0.80100
C253        C  0.92224953  0.47994618  0.88817032     0.79200
Zn254      Zn  0.84621906  0.99308639  0.85938154     1.49700
Zn255      Zn  0.88268209  0.99995974  0.88913738     1.49400
Zn256      Zn  0.85435443  0.92924332  0.89092874     1.49100
Zn257      Zn  0.88557349  0.93617319  0.85636867     1.49500
O258        O  0.86723087  0.96473697  0.87353520    -1.82100
O259        O  0.84675580  0.05129306  0.86600564    -0.72700
O260        O  0.88016512  0.98952202  0.91749870    -0.72600
O261        O  0.82530121  0.92741430  0.88682536    -0.72100
O262        O  0.87346440  0.05339913  0.88476757    -0.72800
O263        O  0.81830516  0.96830649  0.86337105    -0.72400
O264        O  0.85948308  0.93989962  0.91875095    -0.72900
O265        O  0.88196660  0.87732666  0.85940123    -0.72300
O266        O  0.91150984  0.99899488  0.88221698    -0.73100
O267        O  0.86207406  0.87587067  0.88495238    -0.72500
O268        O  0.91471235  0.95221811  0.86071599    -0.72900
O269        O  0.87926722  0.95130445  0.82890517    -0.72800
O270        O  0.85295707  0.98993792  0.83122033    -0.72600
C271        C  0.85942156  0.07036471  0.87593983     0.79200
C272        C  0.87021409  0.96498239  0.92713966     0.79600
C273        C  0.81286789  0.94201479  0.87520545     0.78600
C274        C  0.87174924  0.85867607  0.87183137     0.79000
C275        C  0.92232705  0.97902777  0.87099212     0.80100
C276        C  0.86625573  0.97316512  0.82115797     0.79200
Zn277      Zn  0.13729313  0.08145016  0.84648107     1.49700
Zn278      Zn  0.14552320  0.02181372  0.88090449     1.49400
Zn279      Zn  0.10669971  0.07693194  0.88130919     1.49100
Zn280      Zn  0.10965711  0.00977849  0.85114061     1.49500
O281        O  0.12494235  0.04748442  0.86518711    -1.82100
O282        O  0.16641556  0.08380384  0.85114443    -0.72700
O283        O  0.13995402  0.03162528  0.90912273    -0.72600
O284        O  0.11068705  0.13407573  0.87705280    -0.72100
O285        O  0.17327315  0.04286535  0.87470963    -0.72800
O286        O  0.12852664  0.13611590  0.85018658    -0.72400
O287        O  0.11219877  0.06628747  0.90911140    -0.72900
O288        O  0.08011790  0.01706707  0.85401969    -0.72300
O289        O  0.14405352  0.96319911  0.87800073    -0.73100
O290        O  0.07789410  0.06247607  0.87646514    -0.72500
O291        O  0.11609147  0.95790873  0.86112366    -0.72900
O292        O  0.11652365  0.00960144  0.82317471    -0.72800
O293        O  0.13387590  0.06333335  0.81907580    -0.72600
C294        C  0.17884257  0.06827335  0.86249901     0.79200
C295        C  0.12592455  0.04860600  0.91811937     0.79600
C296        C  0.11951384  0.15314619  0.86388721     0.78600
C297        C  0.06975403  0.03820412  0.86514184     0.79000
C298        C  0.13009022  0.94277512  0.87081646     0.80100
C299        C  0.12597309  0.03278123  0.81232328     0.79200
Zn300      Zn  0.10634618  0.51172895  0.86040631     1.49700
Zn301      Zn  0.13540065  0.58034495  0.85374648     1.49400
Zn302      Zn  0.10739830  0.57891927  0.89104649     1.49100
Zn303      Zn  0.14449895  0.51971339  0.88781577     1.49500
O304        O  0.12354410  0.54765842  0.87351966    -1.82100
O305        O  0.10787177  0.51574620  0.83168741    -0.72700
O306        O  0.12686478  0.63531807  0.85687533    -0.72600
O307        O  0.07793711  0.56436968  0.88990589    -0.72100
O308        O  0.13032525  0.56138326  0.82651481    -0.72800
O309        O  0.07825289  0.51529703  0.86932384    -0.72400
O310        O  0.11107339  0.63530621  0.88491655    -0.72900
O311        O  0.14030242  0.52658101  0.91655755    -0.72300
O312        O  0.16467659  0.58351103  0.85790254    -0.73100
O313        O  0.11637048  0.57073559  0.91851102    -0.72500
O314        O  0.17186068  0.54309425  0.88163151    -0.72900
O315        O  0.14332177  0.46143339  0.88224185    -0.72800
O316        O  0.11506835  0.45875318  0.86574031    -0.72600
C317        C  0.11875101  0.53509335  0.82023368     0.79200
C318        C  0.11885717  0.65338636  0.87081811     0.79600
C319        C  0.06904358  0.53714645  0.88100880     0.78600
C320        C  0.12907666  0.54860237  0.92647983     0.79000
C321        C  0.17718655  0.56888367  0.86948652     0.80100
C322        C  0.12978859  0.44215747  0.87358988     0.79200
Zn323      Zn  0.14367620  0.42152526  0.60982557     1.49700
Zn324      Zn  0.14914335  0.48237337  0.64293900     1.49400
Zn325      Zn  0.11437451  0.49113448  0.61158701     1.49100
Zn326      Zn  0.11065618  0.42459647  0.64334435     1.49500
O327        O  0.12933084  0.45484536  0.62720166    -1.82100
O328        O  0.17293136  0.42164670  0.61491901    -0.72700
O329        O  0.14685984  0.54053565  0.63921181    -0.72600
O330        O  0.11900802  0.48460089  0.58295062    -0.72100
O331        O  0.17768795  0.46174270  0.63924905    -0.72800
O332        O  0.13864092  0.43344854  0.58202253    -0.72400
O333        O  0.12058468  0.54485477  0.61991580    -0.72900
O334        O  0.08159945  0.43819244  0.63728048    -0.72300
O335        O  0.14188548  0.47593542  0.67063488    -0.73100
O336        O  0.08527442  0.48529068  0.61601481    -0.72500
O337        O  0.11489250  0.43892057  0.67151625    -0.72900
O338        O  0.11533882  0.36652150  0.63943545    -0.72800
O339        O  0.13615905  0.36741798  0.61461228    -0.72600
C340        C  0.18442405  0.43696054  0.62728003     0.79200
C341        C  0.13351507  0.56053841  0.63076752     0.79600
C342        C  0.12864247  0.45937241  0.57340636     0.78600
C343        C  0.07416468  0.46419536  0.62642194     0.79000
C344        C  0.12789438  0.45977301  0.67998829     0.80100
C345        C  0.12598886  0.34895986  0.62695490     0.79200
Zn346      Zn  0.15066392  0.98360863  0.63180430     1.49700
Zn347      Zn  0.11455945  0.98810696  0.60203639     1.49400
Zn348      Zn  0.14200195  0.91524850  0.60198974     1.49100
Zn349      Zn  0.11221189  0.92906467  0.63717141     1.49500
O350        O  0.12988767  0.95402164  0.61838515    -1.82100
O351        O  0.14903208  0.04044397  0.62507722    -0.72700
O352        O  0.11814571  0.97636142  0.57389505    -0.72600
O353        O  0.17142632  0.91477047  0.60617343    -0.72100
O354        O  0.12198835  0.04309329  0.60680804    -0.72800
O355        O  0.17820723  0.96078734  0.62737912    -0.72400
O356        O  0.13625313  0.92297621  0.57344903    -0.72900
O357        O  0.11589093  0.87095872  0.63694973    -0.72300
O358        O  0.08567749  0.98434553  0.60822409    -0.73100
O359        O  0.13382283  0.86249084  0.61050485    -0.72500
O360        O  0.08328942  0.94283690  0.63235285    -0.72900
O361        O  0.11855829  0.94768033  0.66389127    -0.72800
O362        O  0.14589206  0.98277421  0.66031553    -0.72600
C363        C  0.13587079  0.05980994  0.61604512     0.79200
C364        C  0.12680020  0.94950686  0.56460453     0.79600
C365        C  0.18376926  0.93261706  0.61684597     0.78600
C366        C  0.12482429  0.84881292  0.62511413     0.79000
C367        C  0.07523948  0.96624431  0.62053192     0.80100
C368        C  0.13236190  0.96845877  0.67096218     0.79200
Zn369      Zn  0.38956103  0.18314288  0.10668097     1.49700
Zn370      Zn  0.38839386  0.24617774  0.13938722     1.49400
Zn371      Zn  0.35169556  0.24032479  0.10935688     1.49100
Zn372      Zn  0.35965323  0.17745326  0.14276188     1.49500
O373        O  0.37215080  0.21183947  0.12423980    -1.82100
O374        O  0.41844214  0.20113122  0.10810753    -0.72700
O375        O  0.37991331  0.29931130  0.13433835    -0.72600
O376        O  0.35670242  0.23409793  0.08058498    -0.72100
O377        O  0.41654223  0.24535338  0.13107553    -0.72800
O378        O  0.38119506  0.19122989  0.07926880    -0.72400
O379        O  0.35343607  0.29856826  0.11520578    -0.72900
O380        O  0.33079873  0.17326258  0.13664724    -0.72300
O381        O  0.38670533  0.23830293  0.16802707    -0.73100
O382        O  0.32399167  0.21629077  0.11395260    -0.72500
O383        O  0.36315376  0.19388029  0.17079823    -0.72900
O384        O  0.36924734  0.12330131  0.13884255    -0.72800
O385        O  0.38687553  0.12622537  0.11172650    -0.72600
C386        C  0.42644917  0.22746592  0.11833531     0.79200
C387        C  0.36660057  0.31694214  0.12486847     0.79600
C388        C  0.36843303  0.21257328  0.07094105     0.78600
C389        C  0.31861620  0.18843117  0.12487293     0.79000
C390        C  0.37516450  0.21797558  0.17840336     0.80100
C391        C  0.37841967  0.10694124  0.12503659     0.79200
Zn392      Zn  0.35825803  0.67851728  0.10723503     1.49700
Zn393      Zn  0.38764962  0.74713881  0.10795927     1.49400
Zn394      Zn  0.35225432  0.74292320  0.13904721     1.49100
Zn395      Zn  0.39059204  0.68524159  0.14163812     1.49500
O396        O  0.37219718  0.71336804  0.12435282    -1.82100
O397        O  0.36427548  0.68678074  0.07921466    -0.72700
O398        O  0.37865179  0.80051037  0.11137941    -0.72600
O399        O  0.32397669  0.72121759  0.13509472    -0.72100
O400        O  0.38573678  0.73506014  0.07980430    -0.72800
O401        O  0.32883695  0.68041943  0.11095232    -0.72400
O402        O  0.35331368  0.80014378  0.13175764    -0.72900
O403        O  0.38503128  0.70029752  0.16950980    -0.72300
O404        O  0.41628377  0.74678407  0.11486037    -0.73100
O405        O  0.35939145  0.74048054  0.16732984    -0.72500
O406        O  0.41968580  0.70107434  0.13683282    -0.72900
O407        O  0.38708468  0.62672579  0.13798174    -0.72800
O408        O  0.36575635  0.62510081  0.11360176    -0.72600
C409        C  0.37566705  0.71028908  0.07048741     0.79200
C410        C  0.36541041  0.81833342  0.12085770     0.79600
C411        C  0.31727363  0.69682670  0.12289038     0.78600
C412        C  0.37260327  0.72330527  0.17735807     0.79000
C413        C  0.42720945  0.72733772  0.12616066     0.80100
C414        C  0.37659670  0.60784418  0.12582811     0.79200
Zn415      Zn  0.38953122  0.32838521  0.35464480     1.49700
Zn416      Zn  0.38569924  0.26589863  0.38876102     1.49400
Zn417      Zn  0.35989318  0.33901593  0.39020598     1.49100
Zn418      Zn  0.35039397  0.27487049  0.35824675     1.49500
O419        O  0.37143441  0.30196324  0.37266151    -1.82100
O420        O  0.41820173  0.31251467  0.36044800    -0.72700
O421        O  0.38090129  0.27275063  0.41733489    -0.72600
O422        O  0.37041875  0.39150473  0.38527066    -0.72100
O423        O  0.41485366  0.26936396  0.38395037    -0.72800
O424        O  0.38620991  0.38723228  0.35718895    -0.72400
O425        O  0.36303347  0.32617196  0.41837755    -0.72900
O426        O  0.32341932  0.30120981  0.36217080    -0.72300
O427        O  0.37738182  0.21293941  0.38193538    -0.73100
O428        O  0.33118364  0.34429013  0.38466518    -0.72500
O429        O  0.34962072  0.21768031  0.36484236    -0.72900
O430        O  0.35729624  0.27442262  0.32997183    -0.72800
O431        O  0.38424549  0.31109528  0.32696660    -0.72600
C432        C  0.42568638  0.28835452  0.37230374     0.79200
C433        C  0.37169155  0.29841851  0.42694079     0.79600
C434        C  0.37890876  0.40728946  0.37094419     0.78600
C435        C  0.31865099  0.32916169  0.37325291     0.79000
C436        C  0.36284240  0.19731115  0.37321195     0.80100
C437        C  0.37114992  0.28873769  0.31967688     0.79200
Zn438      Zn  0.38822303  0.76889535  0.38840028     1.49700
Zn439      Zn  0.35842556  0.83733667  0.38915966     1.49400
Zn440      Zn  0.39047201  0.83112729  0.35446112     1.49100
Zn441      Zn  0.35268202  0.77308221  0.35754710     1.49500
O442        O  0.37255705  0.80267060  0.37210688    -1.82100
O443        O  0.38243966  0.77551513  0.41664901    -0.72700
O444        O  0.36646329  0.89056896  0.38317359    -0.72600
O445        O  0.41966975  0.81935444  0.36069136    -0.72100
O446        O  0.36258756  0.82642544  0.41740001    -0.72800
O447        O  0.41750922  0.77665577  0.38448104    -0.72400
O448        O  0.38513585  0.88940077  0.35678473    -0.72900
O449        O  0.36026744  0.77389087  0.32952716    -0.72300
O450        O  0.32910721  0.83804358  0.38402044    -0.73100
O451        O  0.38621875  0.81302973  0.32674319    -0.72500
O452        O  0.32449063  0.79643485  0.36017640    -0.72900
O453        O  0.35411613  0.71573870  0.36462598    -0.72800
O454        O  0.38210693  0.71454322  0.38167408    -0.72600
C455        C  0.37222691  0.80000889  0.42604901     0.79200
C456        C  0.37556770  0.90801495  0.36971426     0.79600
C457        C  0.42785162  0.79677502  0.37288048     0.78600
C458        C  0.37373075  0.78957581  0.31927173     0.79000
C459        C  0.31779083  0.82217155  0.37167935     0.80100
C460        C  0.36811896  0.69712202  0.37292114     0.79200
Zn461      Zn  0.64804587  0.26851262  0.11253118     1.49700
Zn462      Zn  0.63604062  0.33272045  0.14411906     1.49400
Zn463      Zn  0.61093312  0.32743027  0.10605587     1.49100
Zn464      Zn  0.60852634  0.26234057  0.13761375     1.49500
O465        O  0.62609312  0.29754196  0.12470466    -1.82100
O466        O  0.67512391  0.29312410  0.12000682    -0.72700
O467        O  0.62716289  0.38726111  0.14005584    -0.72600
O468        O  0.62012935  0.31403894  0.07950072    -0.72100
O469        O  0.66520831  0.33654833  0.14142565    -0.72800
O470        O  0.64512389  0.27251447  0.08341768    -0.72400
O471        O  0.61638671  0.38430083  0.10985315    -0.72900
O472        O  0.58034995  0.27095438  0.13039419    -0.72300
O473        O  0.63055143  0.31508424  0.17109332    -0.73100
O474        O  0.58110307  0.31611481  0.10773471    -0.72500
O475        O  0.61096471  0.26483673  0.16620155    -0.72900
O476        O  0.61542762  0.20872873  0.13115464    -0.72800
O477        O  0.64596166  0.21034016  0.11911614    -0.72600
C478        C  0.67895177  0.32080260  0.13166811     0.79200
C479        C  0.62222407  0.40367327  0.12439931     0.79600
C480        C  0.63353139  0.29204930  0.07261525     0.78600
C481        C  0.57148875  0.29245638  0.11832186     0.79000
C482        C  0.62048459  0.28682935  0.17755874     0.80100
C483        C  0.63092417  0.19136169  0.12535999     0.79200
Zn484      Zn  0.61396575  0.75845569  0.10540862     1.49700
Zn485      Zn  0.64047084  0.83229131  0.10196586     1.49400
Zn486      Zn  0.61234312  0.82142777  0.13850892     1.49100
Zn487      Zn  0.65148350  0.76838783  0.13337786     1.49500
O488        O  0.62961634  0.79509667  0.11999572    -1.82100
O489        O  0.61568943  0.76703257  0.07698886    -0.72700
O490        O  0.63081681  0.88520797  0.10806776    -0.72600
O491        O  0.58329453  0.80698632  0.13441211    -0.72100
O492        O  0.63395879  0.82001130  0.07428741    -0.72800
O493        O  0.58508509  0.76078544  0.11234074    -0.72400
O494        O  0.61550312  0.87980145  0.13628315    -0.72900
O495        O  0.64636451  0.76829803  0.16205473    -0.72300
O496        O  0.66992833  0.83677191  0.10528287    -0.73100
O497        O  0.61914143  0.80404388  0.16541057    -0.72500
O498        O  0.67794013  0.79566569  0.12849649    -0.72900
O499        O  0.65251106  0.71144102  0.12585014    -0.72800
O500        O  0.62390246  0.70558649  0.11009072    -0.72600
C501        C  0.62393704  0.79277098  0.06669373     0.79200
C502        C  0.62257468  0.90045967  0.12268094     0.79600
C503        C  0.57496772  0.78169689  0.12376735     0.78600
C504        C  0.63275410  0.78283723  0.17256440     0.79000
C505        C  0.68271229  0.82245116  0.11673825     0.80100
C506        C  0.63940877  0.69069943  0.11745419     0.79200
Zn507      Zn  0.61266887  0.25527647  0.35975542     1.49700
Zn508      Zn  0.60899466  0.18598343  0.38930352     1.49400
Zn509      Zn  0.63886490  0.18319389  0.35344439     1.49100
Zn510      Zn  0.64809613  0.24082179  0.38892484     1.49500
O511        O  0.62727439  0.21618629  0.37318907    -1.82100
O512        O  0.58381560  0.25030361  0.36439121    -0.72700
O513        O  0.61398013  0.12871671  0.38470431    -0.72600
O514        O  0.63297497  0.19984194  0.32620919    -0.72100
O515        O  0.57986399  0.20048247  0.38401411    -0.72800
O516        O  0.61662041  0.25412970  0.33133211    -0.72400
O517        O  0.63136330  0.12810726  0.35751590    -0.72900
O518        O  0.67498943  0.21688299  0.38239126    -0.72300
O519        O  0.61468930  0.19616181  0.41757767    -0.73100
O520        O  0.66812171  0.18125681  0.35657898    -0.72500
O521        O  0.64275822  0.23002883  0.41707323    -0.72900
O522        O  0.64770037  0.30021064  0.38651059    -0.72800
O523        O  0.62034423  0.30675451  0.36897364    -0.72600
C524        C  0.57259696  0.22805106  0.37402124     0.79200
C525        C  0.62302511  0.11038642  0.37137080     0.79600
C526        C  0.62439542  0.22996895  0.31983485     0.78600
C527        C  0.68032487  0.19353854  0.36911295     0.79000
C528        C  0.62890307  0.21311028  0.42635665     0.80100
C529        C  0.63424136  0.32138408  0.37894868     0.79200
Zn530      Zn  0.61488719  0.75459255  0.35436141     1.49700
Zn531      Zn  0.64947091  0.74261950  0.38485117     1.49400
Zn532      Zn  0.61040624  0.68780271  0.38481625     1.49100
Zn533      Zn  0.64232353  0.68122487  0.35067022     1.49500
O534        O  0.62939226  0.71641449  0.36880735    -1.82100
O535        O  0.62310901  0.80739526  0.36203491    -0.72700
O536        O  0.64355735  0.73328971  0.41295358    -0.72600
O537        O  0.58167784  0.70504662  0.38075493    -0.72100
O538        O  0.64929525  0.80111050  0.38127157    -0.72800
O539        O  0.58581821  0.75250524  0.35983505    -0.72400
O540        O  0.61634560  0.69712380  0.41262297    -0.72900
O541        O  0.63446171  0.62613500  0.35615456    -0.72300
O542        O  0.67678779  0.72062936  0.37973901    -0.73100
O543        O  0.61382401  0.63039749  0.38096646    -0.72500
O544        O  0.67176380  0.68045734  0.35535860    -0.72900
O545        O  0.63742875  0.69613125  0.32268101    -0.72800
O546        O  0.61923935  0.74898251  0.32602749    -0.72600
C547        C  0.63669218  0.82208914  0.37242155     0.79200
C548        C  0.62985675  0.71507622  0.42180050     0.79600
C549        C  0.57457583  0.73252580  0.37065099     0.78600
C550        C  0.62413240  0.61018217  0.36932545     0.79000
C551        C  0.68327112  0.69581737  0.36772759     0.80100
C552        C  0.62826367  0.72483714  0.31534680     0.79200
Zn553      Zn  0.88538319  0.01710433  0.39033805     1.49700
Zn554      Zn  0.84906212  0.01745876  0.36038044     1.49400
Zn555      Zn  0.85525510  0.08340732  0.39134587     1.49100
Zn556      Zn  0.88546308  0.07880371  0.35601684     1.49500
O557        O  0.86890782  0.04904188  0.37408644    -1.82100
O558        O  0.87767496  0.96245192  0.38736002    -0.72700
O559        O  0.82099844  0.04009659  0.36298475    -0.72600
O560        O  0.85853666  0.07180673  0.41934575    -0.72100
O561        O  0.85040037  0.96121940  0.36926830    -0.72800
O562        O  0.88230849  0.02800853  0.41840089    -0.72400
O563        O  0.82685801  0.08438555  0.38524188    -0.72900
O564        O  0.88130460  0.13717409  0.35999208    -0.72300
O565        O  0.85531094  0.01860859  0.33206763    -0.73100
O566        O  0.86357063  0.13721281  0.38693359    -0.72500
O567        O  0.87857001  0.06369623  0.32847894    -0.72900
O568        O  0.91482450  0.06532954  0.35999057    -0.72800
O569        O  0.91403591  0.02270343  0.38393518    -0.72600
C570        C  0.86342259  0.94408800  0.37958325     0.79200
C571        C  0.81512619  0.06801881  0.37352641     0.79600
C572        C  0.87060299  0.04949442  0.42791841     0.78600
C573        C  0.87264212  0.15525656  0.37367695     0.79000
C574        C  0.86675197  0.03859484  0.32134543     0.80100
C575        C  0.92362255  0.04246967  0.37163459     0.79200
Zn576      Zn  0.88717359  0.51409725  0.40163397     1.49700
Zn577      Zn  0.88911799  0.58165137  0.37032488     1.49400
Zn578      Zn  0.85141099  0.52365684  0.37181650     1.49100
Zn579      Zn  0.85834527  0.58413624  0.40518158     1.49500
O580        O  0.87164530  0.55079360  0.38699775    -1.82100
O581        O  0.91616968  0.51912436  0.39562394    -0.72700
O582        O  0.88250512  0.57283862  0.34219663    -0.72600
O583        O  0.85250298  0.46558015  0.37589028    -0.72100
O584        O  0.91797196  0.56567582  0.37373062    -0.72800
O585        O  0.87940372  0.46067700  0.39419107    -0.72400
O586        O  0.85735285  0.53149996  0.34396897    -0.72900
O587        O  0.82989582  0.59020320  0.39816598    -0.72300
O588        O  0.88578282  0.63867770  0.37626722    -0.73100
O589        O  0.82376882  0.54635501  0.37562347    -0.72500
O590        O  0.86830372  0.63783283  0.40331833    -0.72900
O591        O  0.86081631  0.56625310  0.43249420    -0.72800
O592        O  0.88307820  0.51933799  0.43027445    -0.72600
C593        C  0.92627020  0.53996147  0.38412514     0.79200
C594        C  0.86956576  0.55138450  0.33410019     0.79600
C595        C  0.86562273  0.44507788  0.38434349     0.78600
C596        C  0.81822248  0.57461965  0.38607546     0.79000
C597        C  0.87738466  0.65631162  0.39019993     0.80100
C598        C  0.87173701  0.54075552  0.44034591     0.79200
Zn599      Zn  0.88734581  0.44156130  0.12418260     1.49700
Zn600      Zn  0.85628591  0.43667301  0.15932107     1.49400
Zn601      Zn  0.88383722  0.50986993  0.15344462     1.49100
Zn602      Zn  0.84797485  0.49532927  0.12407385     1.49500
O603        O  0.86865504  0.47066905  0.14012134    -1.82100
O604        O  0.88450334  0.38460197  0.12969590    -0.72700
O605        O  0.86030127  0.45661966  0.18682673    -0.72600
O606        O  0.91297887  0.50859987  0.14751753    -0.72100
O607        O  0.86578759  0.38147163  0.15600274    -0.72800
O608        O  0.91612514  0.45903910  0.12767701    -0.72400
O609        O  0.88000740  0.50689679  0.18156319    -0.72900
O610        O  0.84792085  0.55401918  0.12772548    -0.72300
O611        O  0.82687173  0.43279899  0.15414631    -0.73100
O612        O  0.87436162  0.56187151  0.14658062    -0.72500
O613        O  0.82058875  0.47143132  0.12944489    -0.72900
O614        O  0.85425393  0.48685302  0.09590835    -0.72800
O615        O  0.88121639  0.45007490  0.09617853    -0.72600
C616        C  0.87570486  0.36493729  0.14269423     0.79200
C617        C  0.87006577  0.48577293  0.19296939     0.79600
C618        C  0.92376599  0.48710355  0.13699448     0.78600
C619        C  0.86012800  0.57564170  0.13679021     0.79000
C620        C  0.81477934  0.44652328  0.14180565     0.80100
C621        C  0.86794769  0.46873589  0.08699769     0.79200
Zn622      Zn  0.86041244  0.93245200  0.10870483     1.49700
Zn623      Zn  0.88670322  0.00522774  0.10986579     1.49400
Zn624      Zn  0.85092892  0.99751337  0.13964838     1.49100
Zn625      Zn  0.89006100  0.94215722  0.14414954     1.49500
O626        O  0.87214670  0.96938605  0.12599637    -1.82100
O627        O  0.86632664  0.94145066  0.08088504    -0.72700
O628        O  0.87972994  0.05920865  0.11656529    -0.72600
O629        O  0.82321506  0.97574259  0.13363812    -0.72100
O630        O  0.88251068  0.99715028  0.08127746    -0.72800
O631        O  0.83120988  0.93195503  0.11173072    -0.72400
O632        O  0.85290921  0.05574697  0.13510850    -0.72900
O633        O  0.88312145  0.95815293  0.17169787    -0.72300
O634        O  0.91549729  0.00155500  0.11567078    -0.73100
O635        O  0.85545604  0.99227494  0.16801852    -0.72500
O636        O  0.91904555  0.95824797  0.13909599    -0.72900
O637        O  0.88646902  0.88305065  0.14202282    -0.72800
O638        O  0.86794676  0.87950052  0.11565249    -0.72600
C639        C  0.87458677  0.96931396  0.07208268     0.79200
C640        C  0.86633999  0.07546133  0.12659165     0.79600
C641        C  0.81826304  0.94885136  0.12200870     0.78600
C642        C  0.86878311  0.97771814  0.17881597     0.79000
C643        C  0.92635575  0.98324488  0.12753405     0.80100
C644        C  0.87688034  0.86329162  0.12954257     0.79200
Zn645      Zn  0.14754406  0.02159017  0.09968017     1.49700
Zn646      Zn  0.14074054  0.07804526  0.13569709     1.49400
Zn647      Zn  0.10938192  0.07969144  0.10120994     1.49100
Zn648      Zn  0.11243010  0.00825354  0.12929781     1.49500
O649        O  0.12767462  0.04716437  0.11614212    -1.82100
O650        O  0.17552141  0.04403280  0.10458492    -0.72700
O651        O  0.13274672  0.13367778  0.13353938    -0.72600
O652        O  0.11378767  0.07048914  0.07280604    -0.72100
O653        O  0.16989195  0.07981630  0.13053954    -0.72800
O654        O  0.14016587  0.03161295  0.07190301    -0.72400
O655        O  0.11494766  0.13623280  0.10666461    -0.72900
O656        O  0.08349782  0.01832998  0.12764485    -0.72300
O657        O  0.13673624  0.05729808  0.16274939    -0.73100
O658        O  0.08023695  0.06789569  0.10768520    -0.72500
O659        O  0.11894128  0.00475913  0.15731092    -0.72900
O660        O  0.11754774  0.95682508  0.11821143    -0.72800
O661        O  0.14653828  0.96242847  0.10300631    -0.72600
C662        C  0.18167726  0.06694273  0.11774496     0.79200
C663        C  0.12408963  0.15305435  0.12040304     0.79600
C664        C  0.12656141  0.05083587  0.06341529     0.78600
C665        C  0.07264085  0.04235462  0.11871876     0.79000
C666        C  0.12821329  0.02677738  0.16886216     0.80100
C667        C  0.13218032  0.94185149  0.10939584     0.79200
Zn668      Zn  0.11167461  0.51180034  0.13984001     1.49700
Zn669      Zn  0.13831536  0.58525900  0.14412594     1.49400
Zn670      Zn  0.14824046  0.52308281  0.11063351     1.49100
Zn671      Zn  0.10858872  0.57614711  0.10832531     1.49500
O672        O  0.12694778  0.54905299  0.12549393    -1.82100
O673        O  0.11653381  0.51564287  0.16806885    -0.72700
O674        O  0.16733943  0.59088201  0.13888871    -0.72600
O675        O  0.14720780  0.46424137  0.11523481    -0.72100
O676        O  0.13458111  0.56841719  0.17210212    -0.72800
O677        O  0.11940725  0.45876544  0.13242611    -0.72400
O678        O  0.17558599  0.54803535  0.11645891    -0.72900
O679        O  0.11531878  0.56430852  0.08058589    -0.72300
O680        O  0.12844765  0.63942834  0.13950441    -0.73100
O681        O  0.14341026  0.53081715  0.08193942    -0.72500
O682        O  0.11251370  0.63323754  0.11171083    -0.72900
O683        O  0.07925178  0.56326179  0.11362160    -0.72800
O684        O  0.08242480  0.51796298  0.13581077    -0.72600
C685        C  0.12558893  0.53911305  0.17905381     0.79200
C686        C  0.18013882  0.57613762  0.12759412     0.79600
C687        C  0.13394466  0.44354969  0.12353061     0.78600
C688        C  0.12971611  0.54719883  0.07219839     0.79000
C689        C  0.12015898  0.65434240  0.12474702     0.80100
C690        C  0.07146241  0.53910620  0.12527937     0.79200
Zn691      Zn  0.10879280  0.43507168  0.39024595     1.49700
Zn692      Zn  0.11282067  0.50480188  0.36091307     1.49400
Zn693      Zn  0.14765226  0.49153959  0.39135482     1.49100
Zn694      Zn  0.14017434  0.43348550  0.35569041     1.49500
O695        O  0.12747438  0.46609781  0.37486236    -1.82100
O696        O  0.07998980  0.45130838  0.38541016    -0.72700
O697        O  0.12037839  0.55643205  0.36994567    -0.72600
O698        O  0.14176557  0.47915234  0.41920515    -0.72100
O699        O  0.08388190  0.50109388  0.36570915    -0.72800
O700        O  0.11434461  0.44322316  0.41858252    -0.72400
O701        O  0.14636716  0.55089566  0.38944842    -0.72900
O702        O  0.16925980  0.43213755  0.36049125    -0.72300
O703        O  0.11691896  0.50272649  0.33244780    -0.73100
O704        O  0.17537830  0.47053558  0.38537594    -0.72500
O705        O  0.13567425  0.45095215  0.32816393    -0.72900
O706        O  0.13201905  0.37834410  0.35893142    -0.72800
O707        O  0.11240956  0.37770881  0.38457814    -0.72600
C708        C  0.07276256  0.47911934  0.37559833     0.79200
C709        C  0.13334115  0.57149663  0.38088368     0.79600
C710        C  0.12799786  0.46072983  0.42787865     0.78600
C711        C  0.18128406  0.44649346  0.37265681     0.79000
C712        C  0.12614337  0.47966338  0.32138236     0.80100
C713        C  0.12209221  0.35985680  0.37151635     0.79200
Zn714      Zn  0.14595912  0.98880967  0.38179891     1.49700
Zn715      Zn  0.11074270  0.00021111  0.35056600     1.49400
Zn716      Zn  0.13728232  0.92679033  0.34788054     1.49100
Zn717      Zn  0.10574415  0.93666470  0.38230951     1.49500
O718        O  0.12519005  0.96318294  0.36590089    -1.82100
O719        O  0.14433313  0.04836193  0.37837324    -0.72700
O720        O  0.11596350  0.99493846  0.32233039    -0.72600
O721        O  0.16649247  0.92304762  0.35302997    -0.72100
O722        O  0.11889285  0.05245021  0.35818355    -0.72800
O723        O  0.17380668  0.96559618  0.37584958    -0.72400
O724        O  0.13357785  0.94136323  0.31957982    -0.72900
O725        O  0.10873884  0.87907079  0.37926303    -0.72300
O726        O  0.08133661  0.99854726  0.35505510    -0.73100
O727        O  0.12797274  0.87295902  0.35349048    -0.72500
O728        O  0.07719859  0.95370700  0.37736552    -0.72900
O729        O  0.11142122  0.94724031  0.41015832    -0.72800
O730        O  0.14044043  0.97808918  0.41028953    -0.72600
C731        C  0.13175488  0.06855959  0.36886443     0.79200
C732        C  0.12505358  0.97045128  0.31192178     0.79600
C733        C  0.17903768  0.93842758  0.36439872     0.78600
C734        C  0.11816292  0.85802059  0.36730024     0.79000
C735        C  0.07006341  0.97959651  0.36627942     0.80100
C736        C  0.12592090  0.96236984  0.41920791     0.79200
C737        C  0.13498471  0.75371893  0.36313674     0.14700
C738        C  0.12574680  0.73671383  0.37914283     0.01600
C739        C  0.11295966  0.75916084  0.39059494     0.16600
C740        C  0.10963210  0.79806804  0.38623268     0.26000
C741        C  0.11925203  0.81554559  0.37039193    -0.40300
C742        C  0.13184461  0.79259971  0.35880730     0.33100
C743        C  0.12807886  0.69476733  0.38269897     0.01700
F744        F  0.10384720  0.74347721  0.40619949    -0.12600
F745        F  0.14148718  0.80770956  0.34336744    -0.13100
C746        C  0.14704803  0.67771174  0.38447790     0.16600
C747        C  0.14905487  0.63734512  0.38497542     0.26000
C748        C  0.13208349  0.61373762  0.38369162    -0.40200
C749        C  0.11313097  0.63112002  0.38332092     0.33000
C750        C  0.11116765  0.67106456  0.38264185     0.14700
F751        F  0.16361147  0.70014865  0.38516929    -0.12600
F752        F  0.09634141  0.60924538  0.38303019    -0.13100
F753        F  0.16751481  0.62150542  0.38558158    -0.15400
F754        F  0.09269284  0.68645865  0.38072122    -0.14000
F755        F  0.14681261  0.73239967  0.35138472    -0.14000
F756        F  0.09722591  0.81860271  0.39777277    -0.15400
C757        C  0.11403334  0.25441984  0.38541653     0.14700
C758        C  0.12723513  0.23557558  0.37290825     0.01600
C759        C  0.13793011  0.25717999  0.35938674     0.16600
C760        C  0.13579123  0.29727332  0.35853945     0.26000
C761        C  0.12289933  0.31679705  0.37137766    -0.40300
C762        C  0.11192364  0.29466805  0.38476487     0.33100
C763        C  0.12850699  0.19301824  0.37262850     0.01700
F764        F  0.15025730  0.23924558  0.34674030    -0.12600
F765        F  0.09913465  0.31178276  0.39725103    -0.13100
C766        C  0.11394983  0.17206761  0.36279025     0.16600
C767        C  0.11515271  0.13198653  0.36154989     0.26000
C768        C  0.13110127  0.11158437  0.37021758    -0.40200
C769        C  0.14567367  0.13289768  0.38027507     0.33000
C770        C  0.14440873  0.17335923  0.38135856     0.14700
F771        F  0.09858113  0.19065091  0.35411394    -0.12600
F772        F  0.16115696  0.11479210  0.38896517    -0.13100
F773        F  0.10042220  0.11339197  0.35187780    -0.15400
F774        F  0.15867154  0.19340403  0.39093592    -0.14000
F775        F  0.10313450  0.23371809  0.39824056    -0.14000
F776        F  0.14656848  0.31679532  0.34516596    -0.15400
C777        C  0.14163276  0.48308777  0.26878756     0.14700
C778        C  0.12623019  0.50512387  0.26072886     0.01600
C779        C  0.11046792  0.51747317  0.27241940     0.16600
C780        C  0.11028870  0.50868378  0.29205300     0.26000
C781        C  0.12586471  0.48702918  0.30034476    -0.40300
C782        C  0.14141674  0.47386140  0.28841597     0.33100
C783        C  0.12617968  0.51418704  0.23996311     0.01700
F784        F  0.09528881  0.53832332  0.26479192    -0.12600
F785        F  0.15666894  0.45286493  0.29579099    -0.13100
C786        C  0.11320433  0.49446724  0.22764636     0.16600
C787        C  0.11292255  0.50277543  0.20797814     0.26000
C788        C  0.12561403  0.53138154  0.20016696    -0.40200
C789        C  0.13852380  0.55139211  0.21272535     0.33000
C790        C  0.13882203  0.54270284  0.23244000     0.14700
F791        F  0.10089212  0.46675647  0.23470138    -0.12600
F792        F  0.15108106  0.57895593  0.20597104    -0.13100
F793        F  0.10008479  0.48270207  0.19666850    -0.15400
F794        F  0.15135183  0.56231705  0.24425472    -0.14000
F795        F  0.15680632  0.47029281  0.25757671    -0.14000
F796        F  0.09469243  0.52096547  0.30287280    -0.15400
C797        C  0.11205075  0.84085027  0.10578768     0.14700
C798        C  0.12852236  0.81872475  0.11149116     0.01600
C799        C  0.14703124  0.83705561  0.11418691     0.16600
C800        C  0.14878635  0.87719978  0.11205975     0.26000
C801        C  0.13200669  0.89944717  0.10734128    -0.40300
C802        C  0.11379941  0.88073822  0.10366187     0.33100
C803        C  0.12606242  0.77681118  0.11510443     0.01700
F804        F  0.16327732  0.81616932  0.11931473    -0.12600
F805        F  0.09742535  0.90140135  0.09864636    -0.13100
C806        C  0.11853898  0.75262866  0.10063170     0.16600
C807        C  0.11574235  0.71326422  0.10404380     0.26000
C808        C  0.12067928  0.69696493  0.12207550    -0.40200
C809        C  0.12787279  0.72154763  0.13669843     0.33000
C810        C  0.13046651  0.76105797  0.13325722     0.14700
F811        F  0.11432545  0.76700851  0.08290650    -0.12600
F812        F  0.13257022  0.70749932  0.15437961    -0.13100
F813        F  0.10880307  0.69107543  0.08940302    -0.15400
F814        F  0.13705661  0.78406472  0.14774231    -0.14000
F815        F  0.09395980  0.82409072  0.10326471    -0.14000
F816        F  0.16648067  0.89451240  0.11586561    -0.15400
C817        C  0.14230877  0.25421713  0.13222220     0.14700
C818        C  0.13038175  0.27706305  0.12025058     0.01600
C819        C  0.11605388  0.25935409  0.10849397     0.16600
C820        C  0.11366134  0.21914342  0.10872035     0.26000
C821        C  0.12563957  0.19593377  0.12074791    -0.40300
C822        C  0.14005311  0.21413662  0.13246593     0.33100
C823        C  0.13212809  0.31955896  0.12104715     0.01700
F824        F  0.10409174  0.28114124  0.09710072    -0.12600
F825        F  0.15236491  0.19324500  0.14393327    -0.13100
C826        C  0.14046118  0.34053517  0.10571544     0.16600
C827        C  0.14192610  0.38092107  0.10672726     0.26000
C828        C  0.13481513  0.40079903  0.12301115    -0.40200
C829        C  0.12675996  0.37938605  0.13844067     0.33000
C830        C  0.12551862  0.33922286  0.13746525     0.14700
F831        F  0.14709002  0.32186939  0.08977603    -0.12600
F832        F  0.11998498  0.39735494  0.15453942    -0.13100
F833        F  0.14947739  0.40061147  0.09149181    -0.15400
F834        F  0.11743899  0.31944054  0.15243465    -0.14000
F835        F  0.15631067  0.27085113  0.14362585    -0.14000
F836        F  0.09947676  0.20311668  0.09731969    -0.15400
C837        C  0.11957630  0.97394965  0.21628966     0.14700
C838        C  0.12907638  0.99847546  0.22948889     0.01600
C839        C  0.13882823  0.03166199  0.22265938     0.16600
C840        C  0.13875105  0.04069014  0.20303135     0.26000
C841        C  0.12890233  0.01660358  0.18970876    -0.40300
C842        C  0.11949325  0.98278195  0.19662912     0.33100
C843        C  0.12798603  0.99062530  0.25046793     0.01700
F844        F  0.14846276  0.05548666  0.23507607    -0.12600
F845        F  0.10990709  0.95829467  0.18449050    -0.13100
C846        C  0.13547353  0.95614772  0.25829268     0.16600
C847        C  0.13446388  0.94925790  0.27817784     0.26000
C848        C  0.12586154  0.97678328  0.29066028    -0.40200
C849        C  0.11828206  0.01125124  0.28258608     0.33000
C850        C  0.11930542  0.01792125  0.26278339     0.14700
F851        F  0.14412617  0.92943007  0.24669661    -0.12600
F852        F  0.10997331  0.03902828  0.29379162    -0.13100
F853        F  0.14199069  0.91567945  0.28512551    -0.15400
F854        F  0.11154256  0.05109210  0.25555863    -0.14000
F855        F  0.10977117  0.94200809  0.22251891    -0.14000
F856        F  0.14820902  0.07329931  0.19719455    -0.15400
C857        C  0.97375660  0.04168969  0.12417235     0.14700
C858        C  0.98843304  0.01342740  0.12678279     0.01600
C859        C  0.98263641  0.97507369  0.13058522     0.16600
C860        C  0.96242867  0.96504205  0.13132482     0.26000
C861        C  0.94775982  0.99316877  0.12805691    -0.40300
C862        C  0.95364920  0.03168322  0.12471306     0.33100
C863        C  0.00975624  0.02386614  0.12517420     0.01700
F864        F  0.99657146  0.94711351  0.13295785    -0.12600
F865        F  0.93987690  0.05993420  0.12222563    -0.13100
C866        C  0.02275040  0.01699752  0.14058975     0.16600
C867        C  0.04307105  0.02454235  0.13868397     0.26000
C868        C  0.05082164  0.03933496  0.12131082    -0.40200
C869        C  0.03764942  0.04797362  0.10618765     0.33000
C870        C  0.01728456  0.04014614  0.10808785     0.14700
F871        F  0.01573779  0.00290335  0.15752623    -0.12600
F872        F  0.04457933  0.06200606  0.08921493    -0.13100
F873        F  0.05520808  0.01720701  0.15388097    -0.15400
F874        F  0.00501943  0.04695347  0.09293582    -0.14000
F875        F  0.97891461  0.07915844  0.12125866    -0.14000
F876        F  0.95725114  0.92766533  0.13442426    -0.15400
C877        C  0.88569648  0.75731106  0.14182432     0.14700
C878        C  0.86857005  0.74026445  0.13379888     0.01600
C879        C  0.85435025  0.76363588  0.12487996     0.16600
C880        C  0.85719255  0.80336399  0.12368258     0.26000
C881        C  0.87448378  0.82084221  0.13134275    -0.40300
C882        C  0.88864340  0.79742256  0.14063233     0.33100
C883        C  0.86528104  0.69810425  0.13452516     0.01700
F884        F  0.83743483  0.74792116  0.11757375    -0.12600
F885        F  0.90546504  0.81310851  0.14811548    -0.13100
C886        C  0.86203832  0.67955282  0.15220424     0.16600
C887        C  0.85892212  0.63965906  0.15280449     0.26000
C888        C  0.85877178  0.61788373  0.13571985    -0.40200
C889        C  0.86126644  0.63661530  0.11798005     0.33000
C890        C  0.86455384  0.67649354  0.11738772     0.14700
F891        F  0.86194566  0.70009148  0.16885249    -0.12600
F892        F  0.86189843  0.61593353  0.10138400    -0.13100
F893        F  0.85645019  0.62202382  0.17010163    -0.15400
F894        F  0.86779821  0.69387268  0.10015094    -0.14000
F895        F  0.89970665  0.73499867  0.15043913    -0.14000
F896        F  0.84261241  0.82482937  0.11539408    -0.15400
C897        C  0.88771057  0.17627462  0.13113139     0.14700
C898        C  0.87073685  0.19844454  0.13504789     0.01600
C899        C  0.85207497  0.18010496  0.13613230     0.16600
C900        C  0.85044335  0.14011793  0.13327601     0.26000
C901        C  0.86745083  0.11793468  0.12913606    -0.40300
C902        C  0.88612417  0.13655268  0.12816521     0.33100
C903        C  0.87259801  0.24082118  0.13744294     0.01700
F904        F  0.83538602  0.20108837  0.13952189    -0.12600
F905        F  0.90306124  0.11617151  0.12493160    -0.13100
C906        C  0.88020594  0.26339534  0.12236458     0.16600
C907        C  0.88192306  0.30340707  0.12434992     0.26000
C908        C  0.87598665  0.32194461  0.14152293    -0.40200
C909        C  0.86875021  0.29896292  0.15681035     0.33000
C910        C  0.86709619  0.25882048  0.15474822     0.14700
F911        F  0.88544575  0.24671896  0.10541189    -0.12600
F912        F  0.86316437  0.31520056  0.17375360    -0.13100
F913        F  0.88873236  0.32397961  0.10906612    -0.15400
F914        F  0.86026317  0.23741475  0.16973593    -0.14000
F915        F  0.90596724  0.19308933  0.13050186    -0.14000
F916        F  0.83221158  0.12330280  0.13414568    -0.15400
C917        C  0.01556904  0.54908303  0.11582313     0.14700
C918        C  0.00766549  0.52376755  0.12965006     0.01600
C919        C  0.02055632  0.50476716  0.14230262     0.16600
C920        C  0.04110598  0.51011787  0.14097877     0.26000
C921        C  0.04936941  0.53488797  0.12687965    -0.40300
C922        C  0.03623661  0.55478883  0.11447168     0.33100
C923        C  0.98602311  0.51612816  0.13088546     0.01700
F924        F  0.01318649  0.48030470  0.15582020    -0.12600
F925        F  0.04329966  0.57950198  0.10092715    -0.13100
C926        C  0.97682679  0.49125480  0.11765189     0.16600
C927        C  0.95674539  0.48113287  0.11978993     0.26000
C928        C  0.94540400  0.49600596  0.13520282    -0.40200
C929        C  0.95478908  0.52117887  0.14840531     0.33000
C930        C  0.97488727  0.53094330  0.14627338     0.14700
F931        F  0.98745921  0.47612857  0.10284655    -0.12600
F932        F  0.94465094  0.53604894  0.16360368    -0.13100
F933        F  0.94840899  0.45715497  0.10659685    -0.15400
F934        F  0.98356369  0.55478662  0.15933136    -0.14000
F935        F  0.00324324  0.56836238  0.10369230    -0.14000
F936        F  0.05283272  0.49070482  0.15360258    -0.15400
C937        C  0.01679442  0.46593489  0.37939855     0.14700
C938        C  0.01000400  0.50393085  0.37652533     0.01600
C939        C  0.02388420  0.53335353  0.37297028     0.16600
C940        C  0.04421172  0.52513299  0.37256060     0.26000
C941        C  0.05112440  0.48720621  0.37580527    -0.40300
C942        C  0.03718739  0.45767606  0.37918839     0.33100
C943        C  0.98858653  0.51339716  0.37831142     0.01700
F944        F  0.01779419  0.57042961  0.37057865    -0.12600
F945        F  0.04325538  0.42072831  0.38199503    -0.13100
C946        C  0.97842428  0.50495187  0.39545507     0.16600
C947        C  0.95833976  0.51441016  0.39750154     0.26000
C948        C  0.94796556  0.53281153  0.38244317    -0.40200
C949        C  0.95828164  0.54183628  0.36535116     0.33000
C950        C  0.97838198  0.53204136  0.36329008     0.14700
F951        F  0.98808890  0.48808481  0.41041475    -0.12600
F952        F  0.94878721  0.55888677  0.35034285    -0.13100
F953        F  0.94913146  0.50586032  0.41437260    -0.15400
F954        F  0.98776960  0.53995074  0.34643049    -0.14000
F955        F  0.00362948  0.43675654  0.38229425    -0.14000
F956        F  0.05714947  0.55473134  0.36967720    -0.15400
C957        C  0.85169623  0.52484542  0.28416444     0.14700
C958        C  0.86876512  0.53152740  0.27304828     0.01600
C959        C  0.88550620  0.54872044  0.28166646     0.16600
C960        C  0.88554379  0.55706720  0.30139295     0.26000
C961        C  0.86883373  0.54807781  0.31282601    -0.40300
C962        C  0.85169273  0.53300845  0.30382088     0.33100
C963        C  0.86914365  0.51964707  0.25259530     0.01700
F964        F  0.90213702  0.55589201  0.27114554    -0.12600
F965        F  0.83487688  0.52576102  0.31404946    -0.13100
C966        C  0.87265839  0.54698326  0.23812535     0.16600
C967        C  0.87290412  0.53581558  0.21882803     0.26000
C968        C  0.86958971  0.49691828  0.21356451    -0.40200
C969        C  0.86582319  0.46962701  0.22810004     0.33000
C970        C  0.86571117  0.48089478  0.24745811     0.14700
F971        F  0.87538789  0.58476774  0.24265645    -0.12600
F972        F  0.86268549  0.43194789  0.22365226    -0.13100
F973        F  0.87586283  0.56348029  0.20526352    -0.15400
F974        F  0.86258293  0.45381544  0.26126441    -0.14000
F975        F  0.83499758  0.51011237  0.27595701    -0.14000
F976        F  0.90225388  0.57223741  0.30937675    -0.15400
C977        C  0.87350618  0.84611073  0.40126932     0.14700
C978        C  0.86665195  0.82140648  0.38674931     0.01600
C979        C  0.85687799  0.83691595  0.37062982     0.16600
C980        C  0.85479574  0.87693335  0.36862940     0.26000
C981        C  0.86264119  0.90189041  0.38269538    -0.40300
C982        C  0.87151267  0.88595748  0.39930349     0.33100
C983        C  0.87027749  0.77954582  0.38822545     0.01700
F984        F  0.84963543  0.81324194  0.35671171    -0.12600
F985        F  0.87859355  0.90899433  0.41357657    -0.13100
C986        C  0.86174434  0.75821586  0.40322925     0.16600
C987        C  0.86489189  0.71848473  0.40446999     0.26000
C988        C  0.87666666  0.69917948  0.39058502    -0.40200
C989        C  0.88586300  0.72117839  0.37599964     0.33000
C990        C  0.88263877  0.76097610  0.37484457     0.14700
F991        F  0.84981228  0.77574086  0.41637266    -0.12600
F992        F  0.89766700  0.70424661  0.36257810    -0.13100
F993        F  0.85577539  0.69896651  0.41895906    -0.15400
F994        F  0.89160273  0.78150886  0.36062799    -0.14000
F995        F  0.88285889  0.83166683  0.41703077    -0.14000
F996        F  0.84602129  0.89119298  0.35253503    -0.15400
C997        C  0.87177378  0.26077167  0.35835258     0.14700
C998        C  0.86757069  0.27902112  0.37593213     0.01600
C999        C  0.86576054  0.25687144  0.39268404     0.16600
C1000       C  0.86803411  0.21690551  0.39196856     0.26000
C1001       C  0.87217056  0.19809255  0.37436513    -0.40300
C1002       C  0.87411847  0.22055054  0.35754766     0.33100
C1003       C  0.86685258  0.32144603  0.37738638     0.01700
F1004       F  0.86185365  0.27413837  0.40983103    -0.12600
F1005       F  0.87780465  0.20362805  0.34028982    -0.13100
C1006       C  0.84998482  0.34231786  0.37161505     0.16600
C1007       C  0.84932159  0.38251432  0.37402394     0.26000
C1008       C  0.86558775  0.40233662  0.38228049    -0.40200
C1009       C  0.88245358  0.38083959  0.38800323     0.33000
C1010       C  0.88298266  0.34092660  0.38561133     0.14700
F1011       F  0.83405160  0.32366954  0.36399252    -0.12600
F1012       F  0.89872606  0.39829051  0.39567367    -0.13100
F1013       F  0.83270800  0.40180778  0.36846632    -0.15400
F1014       F  0.89938161  0.32108296  0.39130898    -0.14000
F1015       F  0.87384170  0.28200910  0.34205244    -0.14000
F1016       F  0.86633279  0.19672082  0.40865210    -0.15400
C1017       C  0.02127355  0.03372882  0.35984052     0.14700
C1018       C  0.00763885  0.00892078  0.36878682     0.01600
C1019       C  0.01445675  0.97415743  0.37686102     0.16600
C1020       C  0.03464932  0.96425110  0.37588777     0.26000
C1021       C  0.04843749  0.98900448  0.36683302    -0.40300
C1022       C  0.04143021  0.02402159  0.35884768     0.33100
C1023       C  0.98627723  0.01928066  0.36952115     0.01700
F1024       F  0.00147094  0.94951426  0.38542936    -0.12600
F1025       F  0.05409544  0.04954406  0.35047518    -0.13100
C1026       C  0.97534244  0.02361372  0.35239852     0.16600
C1027       C  0.95507530  0.03282298  0.35302821     0.26000
C1028       C  0.94540744  0.03750037  0.37080238    -0.40200
C1029       C  0.95643462  0.03372801  0.38793182     0.33000
C1030       C  0.97672764  0.02488193  0.38728402     0.14700
F1031       F  0.98416590  0.01751615  0.33508413    -0.12600
F1032       F  0.94753552  0.03872930  0.40531099    -0.13100
F1033       F  0.94466452  0.03503202  0.33631708    -0.15400
F1034       F  0.98709615  0.02193642  0.40399647    -0.14000
F1035       F  0.01509350  0.06795197  0.35240318    -0.14000
F1036       F  0.04059665  0.93019757  0.38366674    -0.15400
C1037       C  0.85250868  0.01895920  0.22716620     0.14700
C1038       C  0.86689754  0.00390291  0.23968442     0.01600
C1039       C  0.88148980  0.97885407  0.23237724     0.16600
C1040       C  0.88191258  0.96947436  0.21274849     0.26000
C1041       C  0.86772369  0.98517197  0.19997053    -0.40300
C1042       C  0.85285805  0.00976459  0.20757693     0.33100
C1043       C  0.86658083  0.01417242  0.26039753     0.01700
F1044       F  0.89524835  0.96314159  0.24434678    -0.12600
F1045       F  0.83872976  0.02568928  0.19608722    -0.13100
C1046       C  0.85024398  0.00395048  0.27190531     0.16600
C1047       C  0.85012116  0.01258997  0.29157064     0.26000
C1048       C  0.86638512  0.03180049  0.30018497    -0.40200
C1049       C  0.88248625  0.04309493  0.28842004     0.33000
C1050       C  0.88257637  0.03422784  0.26874123     0.14700
F1051       F  0.83453085  0.98480674  0.26414620    -0.12600
F1052       F  0.89840906  0.06189058  0.29597470    -0.13100
F1053       F  0.83397541  0.00217633  0.30212471    -0.15400
F1054       F  0.89826893  0.04542324  0.25775945    -0.14000
F1055       F  0.83832427  0.04344067  0.23385989    -0.14000
F1056       F  0.89628653  0.94513489  0.20634284    -0.15400
C1057       C  0.77840072  0.65057064  0.38059547     0.14700
C1058       C  0.76139487  0.62827625  0.37686253     0.01600
C1059       C  0.76307749  0.58775195  0.37618518     0.16600
C1060       C  0.78153726  0.56988525  0.37915859     0.26000
C1061       C  0.79844901  0.59227597  0.38326050    -0.40300
C1062       C  0.79668950  0.63279799  0.38390585     0.33100
C1063       C  0.74193810  0.64747396  0.37390738     0.01700
F1064       F  0.74676602  0.56548166  0.37303352    -0.12600
F1065       F  0.81289093  0.65543851  0.38703351    -0.13100
C1066       C  0.73099485  0.64114579  0.35699237     0.16600
C1067       C  0.71233218  0.65828558  0.35452610     0.26000
C1068       C  0.70423232  0.68231804  0.36896554    -0.40200
C1069       C  0.71569134  0.68984365  0.38556186     0.33000
C1070       C  0.73426445  0.67241826  0.38802364     0.14700
F1071       F  0.73840897  0.61831783  0.34281027    -0.12600
F1072       F  0.70863723  0.71269916  0.39989998    -0.13100
F1073       F  0.70213374  0.65081382  0.33806721    -0.15400
F1074       F  0.74444895  0.67878838  0.40460742    -0.14000
F1075       F  0.77738715  0.68973737  0.38061006    -0.14000
F1076       F  0.78279021  0.53079279  0.37848424    -0.15400
C1077       C  0.62807593  0.00901724  0.39159592     0.14700
C1078       C  0.63324894  0.98793285  0.37510221     0.01600
C1079       C  0.63446444  0.00678950  0.35729545     0.16600
C1080       C  0.63048659  0.04631540  0.35593811     0.26000
C1081       C  0.62523457  0.06778432  0.37245959    -0.40300
C1082       C  0.62414787  0.04860200  0.39033756     0.33100
C1083       C  0.63496518  0.94552658  0.37600724     0.01700
F1084       F  0.63897419  0.98660873  0.34111094    -0.12600
F1085       F  0.61985658  0.06824725  0.40673137    -0.13100
C1086       C  0.61759367  0.92355943  0.37800816     0.16600
C1087       C  0.61843512  0.88342769  0.37725951     0.26000
C1088       C  0.63673898  0.86440015  0.37470771    -0.40200
C1089       C  0.65432964  0.88628377  0.37347877     0.33000
C1090       C  0.65340942  0.92678973  0.37389469     0.14700
F1091       F  0.59966672  0.94116572  0.38005378    -0.12600
F1092       F  0.67217089  0.86859418  0.37100970    -0.13100
F1093       F  0.60125749  0.86302624  0.37900464    -0.15400
F1094       F  0.67038613  0.94771337  0.37198172    -0.14000
F1095       F  0.62686553  0.99113889  0.40894916    -0.14000
F1096       F  0.63155985  0.06339357  0.33837307    -0.15400
C1097       C  0.61877426  0.51008953  0.39142775     0.14700
C1098       C  0.63081517  0.48772234  0.37924098     0.01600
C1099       C  0.64004206  0.50534413  0.36340054     0.16600
C1100       C  0.63734998  0.54471885  0.35977551     0.26000
C1101       C  0.62532063  0.56751282  0.37199610    -0.40300
C1102       C  0.61599344  0.54947803  0.38786163     0.33100
C1103       C  0.63201707  0.44531171  0.38174235     0.01700
F1104       F  0.65125212  0.48409362  0.35106356    -0.12600
F1105       F  0.60432372  0.56985984  0.40015937    -0.13100
C1106       C  0.61455887  0.42336208  0.38042299     0.16600
C1107       C  0.61542563  0.38322808  0.38047367     0.26000
C1108       C  0.63386053  0.36385662  0.38162980    -0.40200
C1109       C  0.65132772  0.38577464  0.38405314     0.33000
C1110       C  0.65040275  0.42631921  0.38402312     0.14700
F1111       F  0.59663114  0.44083563  0.37809813    -0.12600
F1112       F  0.66929860  0.36815677  0.38554344    -0.13100
F1113       F  0.59807034  0.36329009  0.37902866    -0.15400
F1114       F  0.66744663  0.44706396  0.38585842    -0.14000
F1115       F  0.60971540  0.49370500  0.40688249    -0.14000
F1116       F  0.64662107  0.56032984  0.34425050    -0.15400
C1117       C  0.77260629  0.13892043  0.37688390     0.14700
C1118       C  0.75668554  0.11799056  0.36919274     0.01600
C1119       C  0.75994818  0.08037689  0.36219342     0.16600
C1120       C  0.77893836  0.06359526  0.36344479     0.26000
C1121       C  0.79480320  0.08430463  0.37178641    -0.40300
C1122       C  0.79137492  0.12245493  0.37819856     0.33100
C1123       C  0.73680425  0.13609425  0.36897180     0.01700
F1124       F  0.74469654  0.05970598  0.35456249    -0.12600
F1125       F  0.80630195  0.14460734  0.38542422    -0.13100
C1126       C  0.72721925  0.14430392  0.35151928     0.16600
C1127       C  0.70922127  0.16457512  0.35146052     0.26000
C1128       C  0.70063226  0.17726228  0.36888340    -0.40200
C1129       C  0.71036779  0.16909272  0.38632164     0.33000
C1130       C  0.72821014  0.14849299  0.38635110     0.14700
F1131       F  0.73550038  0.13341082  0.33453585    -0.12600
F1132       F  0.70214953  0.17933960  0.40343178    -0.13100
F1133       F  0.70021808  0.17191196  0.33434882    -0.15400
F1134       F  0.73706392  0.14016806  0.40342575    -0.14000
F1135       F  0.76999591  0.17584502  0.38298027    -0.14000
F1136       F  0.78167689  0.02708976  0.35684210    -0.15400
C1137       C  0.72747401  0.88349938  0.10295639     0.14700
C1138       C  0.74009462  0.87850567  0.11887813     0.01600
C1139       C  0.73424607  0.85325534  0.13369090     0.16600
C1140       C  0.71592876  0.83393406  0.13277286     0.26000
C1141       C  0.70312623  0.83924116  0.11689810    -0.40300
C1142       C  0.70934418  0.86388503  0.10186001     0.33100
C1143       C  0.75964314  0.89855037  0.11954135     0.01700
F1144       F  0.74636893  0.84699166  0.14900626    -0.12600
F1145       F  0.69783328  0.86943473  0.08603582    -0.13100
C1146       C  0.76507796  0.92182973  0.13531536     0.16600
C1147       C  0.78382974  0.93969160  0.13592029     0.26000
C1148       C  0.79739821  0.93485277  0.12064057    -0.40200
C1149       C  0.79154494  0.91252270  0.10460753     0.33000
C1150       C  0.77304923  0.89430423  0.10419538     0.14700
F1151       F  0.75224995  0.92716687  0.15017823    -0.12600
F1152       F  0.80388205  0.90756903  0.08931462    -0.13100
F1153       F  0.78894902  0.96033040  0.15178221    -0.15400
F1154       F  0.76850912  0.87131988  0.08897258    -0.14000
F1155       F  0.73253400  0.90811101  0.08853927    -0.14000
F1156       F  0.71056026  0.81090807  0.14771112    -0.15400
C1157       C  0.64909290  0.75537145  0.22316084     0.14700
C1158       C  0.63079272  0.75458254  0.23300768     0.01600
C1159       C  0.61325103  0.76308658  0.22282305     0.16600
C1160       C  0.61399017  0.77298686  0.20334099     0.26000
C1161       C  0.63227397  0.77380404  0.19343306    -0.40300
C1162       C  0.64981416  0.76448570  0.20352058     0.33100
C1163       C  0.62994913  0.74618320  0.25398439     0.01700
F1164       F  0.59526414  0.76116817  0.23168724    -0.12600
F1165       F  0.66774508  0.76505037  0.19451021    -0.13100
C1166       C  0.62041397  0.77208877  0.26649891     0.16600
C1167       C  0.61942806  0.76461063  0.28622080     0.26000
C1168       C  0.62836968  0.73124881  0.29410760    -0.40200
C1169       C  0.63789651  0.70519516  0.28148781     0.33000
C1170       C  0.63855924  0.71251442  0.26164448     0.14700
F1171       F  0.61240261  0.80537951  0.25967964    -0.12600
F1172       F  0.64663105  0.67257569  0.28825105    -0.13100
F1173       F  0.60989650  0.79066286  0.29754814    -0.15400
F1174       F  0.64741310  0.68637235  0.24986837    -0.14000
F1175       F  0.66635986  0.74829935  0.23267067    -0.14000
F1176       F  0.59665568  0.78061222  0.19404639    -0.15400
C1177       C  0.63790025  0.50030856  0.10443840     0.14700
C1178       C  0.63469853  0.52492784  0.12022704     0.01600
C1179       C  0.62671205  0.50955465  0.13731509     0.16600
C1180       C  0.62214666  0.47021387  0.13860596     0.26000
C1181       C  0.62500599  0.44578973  0.12266677    -0.40300
C1182       C  0.63284144  0.46127368  0.10554661     0.33100
C1183       C  0.63831947  0.56698778  0.11836546     0.01700
F1184       F  0.62289686  0.53278723  0.15262192    -0.12600
F1185       F  0.63651530  0.43823995  0.09012787    -0.13100
C1186       C  0.62915499  0.58754835  0.10338739     0.16600
C1187       C  0.63087583  0.62754804  0.10234950     0.26000
C1188       C  0.64136783  0.64817557  0.11659263    -0.40200
C1189       C  0.65149484  0.62749660  0.13102084     0.33000
C1190       C  0.65002056  0.58714647  0.13185836     0.14700
F1191       F  0.61755432  0.56912368  0.09027061    -0.12600
F1192       F  0.66187691  0.64632008  0.14492217    -0.13100
F1193       F  0.62165635  0.64621938  0.08765513    -0.15400
F1194       F  0.65964267  0.56784082  0.14608798    -0.14000
F1195       F  0.64628497  0.51397703  0.08800511    -0.14000
F1196       F  0.61468635  0.45608552  0.15535136    -0.15400
C1197       C  0.62581100  0.00557250  0.10806580     0.14700
C1198       C  0.62700373  0.02411016  0.12597577     0.01600
C1199       C  0.62526027  0.00209792  0.14290717     0.16600
C1200       C  0.62288917  0.96196027  0.14192097     0.26000
C1201       C  0.62230741  0.94316911  0.12394810    -0.40300
C1202       C  0.62348740  0.96556249  0.10703209     0.33100
C1203       C  0.62897364  0.06665088  0.12684733     0.01700
F1204       F  0.62635368  0.01941458  0.16041288    -0.12600
F1205       F  0.62232661  0.94875720  0.08940323    -0.13100
C1206       C  0.61377720  0.08857976  0.13519034     0.16600
C1207       C  0.61465527  0.12878235  0.13494902     0.26000
C1208       C  0.63085156  0.14831897  0.12621559    -0.40200
C1209       C  0.64635035  0.12608917  0.11821317     0.33000
C1210       C  0.64537947  0.08560782  0.11852032     0.14700
F1211       F  0.59762495  0.07099125  0.14304090    -0.12600
F1212       F  0.66227910  0.14333037  0.10980948    -0.13100
F1213       F  0.59934146  0.14834841  0.14316532    -0.15400
F1214       F  0.66044609  0.06482755  0.11064313    -0.14000
F1215       F  0.62660393  0.02638316  0.09151854    -0.14000
F1216       F  0.62203459  0.94142580  0.15854918    -0.15400
C1217       C  0.76159043  0.42507571  0.12538670     0.14700
C1218       C  0.75600444  0.39560539  0.13818366     0.01600
C1219       C  0.76910550  0.38504156  0.15296806     0.16600
C1220       C  0.78780601  0.40251432  0.15456913     0.26000
C1221       C  0.79391766  0.43128835  0.14135660    -0.40300
C1222       C  0.78031027  0.44286531  0.12696139     0.33100
C1223       C  0.73646095  0.37591047  0.13639778     0.01700
F1224       F  0.76395461  0.35687503  0.16562986    -0.12600
F1225       F  0.78514767  0.47094718  0.11415952    -0.13100
C1226       C  0.73220590  0.35201973  0.12054588     0.16600
C1227       C  0.71387520  0.33262723  0.11925112     0.26000
C1228       C  0.69940343  0.33704530  0.13377418    -0.40200
C1229       C  0.70397931  0.36071865  0.14978314     0.33000
C1230       C  0.72223841  0.37987097  0.15101498     0.14700
F1231       F  0.74588367  0.34734117  0.10635905    -0.12600
F1232       F  0.69072316  0.36572367  0.16433623    -0.13100
F1233       F  0.71010520  0.31058543  0.10351211    -0.15400
F1234       F  0.72591109  0.40299840  0.16640338    -0.14000
F1235       F  0.74884033  0.43675468  0.11139628    -0.14000
F1236       F  0.80002308  0.39040186  0.16890990    -0.15400
C1237       C  0.61150480  0.23652705  0.22538199     0.14700
C1238       C  0.62135395  0.26128093  0.23817616     0.01600
C1239       C  0.63064489  0.29469352  0.23117209     0.16600
C1240       C  0.63018961  0.30331262  0.21155223     0.26000
C1241       C  0.62029666  0.27861137  0.19852835    -0.40300
C1242       C  0.61093168  0.24503108  0.20574038     0.33100
C1243       C  0.62179955  0.25257427  0.25892106     0.01700
F1244       F  0.64048301  0.31868849  0.24336175    -0.12600
F1245       F  0.60138777  0.21999328  0.19385368    -0.13100
C1246       C  0.63197852  0.22004513  0.26578621     0.16600
C1247       C  0.63284297  0.21249584  0.28554041     0.26000
C1248       C  0.62338810  0.23738281  0.29878741    -0.40200
C1249       C  0.61300986  0.26985906  0.29165580     0.33000
C1250       C  0.61228275  0.27729289  0.27193797     0.14700
F1251       F  0.64145499  0.19604367  0.25334318    -0.12600
F1252       F  0.60349627  0.29466647  0.30366922    -0.13100
F1253       F  0.64315268  0.18107692  0.29160591    -0.15400
F1254       F  0.60210383  0.30858544  0.26548309    -0.14000
F1255       F  0.60225358  0.20425646  0.23197453    -0.14000
F1256       F  0.63961945  0.33571928  0.20539387    -0.15400
C1257       C  0.23494931  0.92657466  0.37343622     0.14700
C1258       C  0.23845997  0.88904539  0.36632640     0.01600
C1259       C  0.22247229  0.86852251  0.35827700     0.16600
C1260       C  0.20344044  0.88487932  0.35738583     0.26000
C1261       C  0.19974222  0.92238749  0.36465783    -0.40300
C1262       C  0.21581064  0.94299737  0.37269582     0.33100
C1263       C  0.25857814  0.87077113  0.36768562     0.01700
F1264       F  0.22511583  0.83186164  0.35182800    -0.12600
F1265       F  0.21309272  0.97919603  0.37969690    -0.13100
C1266       C  0.26815914  0.86720790  0.38559187     0.16600
C1267       C  0.28705312  0.85024984  0.38693867     0.26000
C1268       C  0.29678357  0.83585843  0.37042950    -0.40200
C1269       C  0.28700385  0.83863886  0.35255455     0.33000
C1270       C  0.26816741  0.85605503  0.35119102     0.14700
F1271       F  0.25909604  0.87978314  0.40189661    -0.12600
F1272       F  0.29610226  0.82635505  0.33621629    -0.13100
F1273       F  0.29583245  0.84784573  0.40450247    -0.15400
F1274       F  0.25957589  0.85973205  0.33360118    -0.14000
F1275       F  0.25014583  0.94758501  0.38093247    -0.14000
F1276       F  0.18847817  0.86309740  0.34996115    -0.15400
C1277       C  0.51909166  0.72947548  0.38245355     0.14700
C1278       C  0.51229858  0.76364578  0.37367735     0.01600
C1279       C  0.52608348  0.78769108  0.36438541     0.16600
C1280       C  0.54614067  0.77743142  0.36334414     0.26000
C1281       C  0.55305040  0.74275188  0.37173874    -0.40300
C1282       C  0.53926568  0.71917742  0.38157267     0.33100
C1283       C  0.49081896  0.77392020  0.37365349     0.01700
F1284       F  0.52014074  0.82163155  0.35647297    -0.12600
F1285       F  0.54518018  0.68593238  0.39019341    -0.13100
C1286       C  0.48018178  0.77744080  0.39099043     0.16600
C1287       C  0.45981936  0.78611799  0.39077470     0.26000
C1288       C  0.44977288  0.79209491  0.37322563    -0.40200
C1289       C  0.46057032  0.78973189  0.35592635     0.33000
C1290       C  0.48083659  0.78038180  0.35613423     0.14700
F1291       F  0.48954690  0.77273985  0.40814956    -0.12600
F1292       F  0.45127501  0.79432975  0.33872993    -0.13100
F1293       F  0.44991262  0.78885474  0.40775697    -0.15400
F1294       F  0.49057936  0.77620160  0.33913370    -0.14000
F1295       F  0.50610212  0.70553926  0.39150063    -0.14000
F1296       F  0.55878769  0.80207380  0.35430037    -0.15400
C1297       C  0.37254965  0.50997014  0.35309420     0.14700
C1298       C  0.37325209  0.53063745  0.37046677     0.01600
C1299       C  0.37716113  0.51100827  0.38769586     0.16600
C1300       C  0.37994807  0.47106967  0.38766196     0.26000
C1301       C  0.37903775  0.44999217  0.37032408    -0.40300
C1302       C  0.37553303  0.46989897  0.35298211     0.33100
C1303       C  0.37149783  0.57309383  0.37059231     0.01700
F1304       F  0.37807935  0.53060245  0.40460954    -0.12600
F1305       F  0.37409178  0.45042196  0.33608204    -0.13100
C1306       C  0.35295757  0.59144827  0.36867521     0.16600
C1307       C  0.35165857  0.63188084  0.36935905     0.26000
C1308       C  0.36892223  0.65435669  0.37205075    -0.40200
C1309       C  0.38745978  0.63550590  0.37382373     0.33000
C1310       C  0.38866145  0.59537197  0.37316557     0.14700
F1311       F  0.33612295  0.57018365  0.36655553    -0.12600
F1312       F  0.40461859  0.65587527  0.37579671    -0.13100
F1313       F  0.33352982  0.64889552  0.36787302    -0.15400
F1314       F  0.40670262  0.57807948  0.37492761    -0.14000
F1315       F  0.36899433  0.52868246  0.33627522    -0.14000
F1316       F  0.38346416  0.45291896  0.40465362    -0.15400
C1317       C  0.37409443  0.01202508  0.35179109     0.14700
C1318       C  0.36662601  0.03106701  0.36813786     0.01600
C1319       C  0.36242826  0.00972527  0.38477231     0.16600
C1320       C  0.36626755  0.97034950  0.38544302     0.26000
C1321       C  0.37377064  0.95073702  0.36915573    -0.40300
C1322       C  0.37760043  0.97206749  0.35225299     0.33100
C1323       C  0.36513084  0.07358905  0.36897279     0.01700
F1324       F  0.35476045  0.02731134  0.40060555    -0.12600
F1325       F  0.38447030  0.95435604  0.33613958    -0.13100
C1326       C  0.35252266  0.09443439  0.35662984     0.16600
C1327       C  0.35107540  0.13473116  0.35830399     0.26000
C1328       C  0.36218186  0.15455982  0.37244462    -0.40200
C1329       C  0.37437414  0.13310617  0.38501865     0.33000
C1330       C  0.37601731  0.09333495  0.38309403     0.14700
F1331       F  0.34153345  0.07578841  0.34311369    -0.12600
F1332       F  0.38495340  0.15052124  0.39924105    -0.13100
F1333       F  0.33925121  0.15425557  0.34580619    -0.15400
F1334       F  0.38855063  0.07395313  0.39500205    -0.14000
F1335       F  0.37839949  0.03223073  0.33556990    -0.14000
F1336       F  0.36269318  0.95161858  0.40227226    -0.15400
C1337       C  0.26258637  0.34017791  0.36898287     0.14700
C1338       C  0.26021765  0.37976138  0.37306983     0.01600
C1339       C  0.27710121  0.40235441  0.37680517     0.16600
C1340       C  0.29598771  0.38573864  0.37673589     0.26000
C1341       C  0.29845542  0.34608282  0.37274974    -0.40300
C1342       C  0.28158789  0.32351819  0.36866637     0.33100
C1343       C  0.24026754  0.39794140  0.37291106     0.01700
F1344       F  0.27534957  0.44086886  0.38006945    -0.12600
F1345       F  0.28342450  0.28522255  0.36490549    -0.13100
C1346       C  0.23325889  0.41846022  0.38902521     0.16600
C1347       C  0.21445669  0.43586555  0.38872753     0.26000
C1348       C  0.20222381  0.43277316  0.37232361    -0.40200
C1349       C  0.20955605  0.41279891  0.35607101     0.33000
C1350       C  0.22835102  0.39570591  0.35638712     0.14700
F1351       F  0.24439910  0.42065136  0.40529687    -0.12600
F1352       F  0.19852048  0.40949148  0.33977781    -0.13100
F1353       F  0.20797165  0.45430743  0.40479208    -0.15400
F1354       F  0.23501109  0.37719172  0.34040364    -0.14000
F1355       F  0.24645568  0.31752053  0.36564718    -0.14000
F1356       F  0.31195640  0.40886438  0.38008261    -0.15400
C1357       C  0.47846045  0.27076394  0.35516467     0.14700
C1358       C  0.48805969  0.26085467  0.37245837     0.01600
C1359       C  0.47721354  0.26121609  0.38972101     0.16600
C1360       C  0.45703247  0.27095053  0.38970171     0.26000
C1361       C  0.44735695  0.28090676  0.37240930    -0.40300
C1362       C  0.45828597  0.28081163  0.35513465     0.33100
C1363       C  0.50957102  0.25167955  0.37262350     0.01700
F1364       F  0.48629150  0.25285785  0.40667613    -0.12600
F1365       F  0.44925937  0.28882462  0.33811426    -0.13100
C1366       C  0.52333380  0.27950533  0.36653704     0.16600
C1367       C  0.54368383  0.27170480  0.36699520     0.26000
C1368       C  0.55081973  0.23564159  0.37359307    -0.40200
C1369       C  0.53693543  0.20772402  0.37971320     0.33000
C1370       C  0.51648631  0.21572287  0.37922521     0.14700
F1371       F  0.51705879  0.31481314  0.36058315    -0.12600
F1372       F  0.54306509  0.17251947  0.38590628    -0.13100
F1373       F  0.55636606  0.30008407  0.36134469    -0.15400
F1374       F  0.50338937  0.18816378  0.38495579    -0.14000
F1375       F  0.48856095  0.26989249  0.33823859    -0.14000
F1376       F  0.44700435  0.27113999  0.40667508    -0.15400
C1377       C  0.23595436  0.59208840  0.12066663     0.14700
C1378       C  0.23777912  0.63173245  0.12492697     0.01600
C1379       C  0.22067760  0.65256352  0.12999602     0.16600
C1380       C  0.20216069  0.63423224  0.13099678     0.26000
C1381       C  0.20020839  0.59444240  0.12684537    -0.40300
C1382       C  0.21733115  0.57363256  0.12152642     0.33100
C1383       C  0.25745948  0.65145091  0.12404497     0.01700
F1384       F  0.22181171  0.69108044  0.13350357    -0.12600
F1385       F  0.21614632  0.53533149  0.11755007    -0.13100
C1386       C  0.26843812  0.65180278  0.10685220     0.16600
C1387       C  0.28742126  0.66844130  0.10623835     0.26000
C1388       C  0.29591590  0.68519274  0.12286047    -0.40200
C1389       C  0.28443323  0.68666168  0.13981248     0.33000
C1390       C  0.26542041  0.66988177  0.14039306     0.14700
F1391       F  0.26075385  0.63593310  0.09059332    -0.12600
F1392       F  0.29197732  0.70243875  0.15614576    -0.13100
F1393       F  0.29757363  0.66777686  0.08933476    -0.15400
F1394       F  0.25511192  0.67018678  0.15720077    -0.14000
F1395       F  0.25230710  0.57108377  0.11599562    -0.14000
F1396       F  0.18597725  0.65597873  0.13541856    -0.15400
C1397       C  0.52212014  0.77394027  0.14283886     0.14700
C1398       C  0.51179386  0.76153712  0.12637932     0.01600
C1399       C  0.52218132  0.75687952  0.10899878     0.16600
C1400       C  0.54265775  0.76377907  0.10813608     0.26000
C1401       C  0.55312691  0.77599980  0.12462387    -0.40300
C1402       C  0.54260906  0.78134610  0.14195963     0.33100
C1403       C  0.49015216  0.75361876  0.12714453     0.01700
F1404       F  0.51249233  0.74505100  0.09288612    -0.12600
F1405       F  0.55224931  0.79255727  0.15820117    -0.13100
C1406       C  0.47697744  0.77627442  0.11636635     0.16600
C1407       C  0.45664167  0.76790850  0.11618311     0.26000
C1408       C  0.44894317  0.73628973  0.12676068    -0.40200
C1409       C  0.46226855  0.71399382  0.13783618     0.33000
C1410       C  0.48266402  0.72266625  0.13801890     0.14700
F1411       F  0.48384597  0.80680087  0.10603424    -0.12600
F1412       F  0.45569690  0.68347984  0.14831995    -0.13100
F1413       F  0.44457326  0.79111670  0.10560988    -0.15400
F1414       F  0.49522367  0.70019340  0.14843133    -0.14000
F1415       F  0.51230443  0.77913492  0.15972132    -0.14000
F1416       F  0.55219497  0.75893442  0.09106753    -0.15400
C1417       C  0.36483160  0.77156193  0.22608812     0.14700
C1418       C  0.37702883  0.74949816  0.23815597     0.01600
C1419       C  0.38771842  0.71836909  0.23039958     0.16600
C1420       C  0.38623695  0.70946302  0.21072265     0.26000
C1421       C  0.37387799  0.73152003  0.19845601    -0.40300
C1422       C  0.36323017  0.76279553  0.20650273     0.33100
C1423       C  0.37739685  0.75793192  0.25903980     0.01700
F1424       F  0.39945837  0.69641563  0.24193088    -0.12600
F1425       F  0.35137553  0.78546778  0.19544378    -0.13100
C1426       C  0.36308681  0.74116639  0.27105544     0.16600
C1427       C  0.36185182  0.75156994  0.29046207     0.26000
C1428       C  0.37504275  0.77920629  0.29839702    -0.40200
C1429       C  0.38967682  0.79550314  0.28623520     0.33000
C1430       C  0.39077574  0.78498519  0.26673364     0.14700
F1431       F  0.34999877  0.71500360  0.26384646    -0.12600
F1432       F  0.40288034  0.82183984  0.29307407    -0.13100
F1433       F  0.34759067  0.73448600  0.30137556    -0.15400
F1434       F  0.40472684  0.80157762  0.25526581    -0.14000
F1435       F  0.35429946  0.80163700  0.23338677    -0.14000
F1436       F  0.39676175  0.67902808  0.20380184    -0.15400
C1437       C  0.35214993  0.92376869  0.12944671     0.14700
C1438       C  0.36786669  0.94243287  0.11986302     0.01600
C1439       C  0.38174509  0.92050648  0.10959160     0.16600
C1440       C  0.38041052  0.88045051  0.10932875     0.26000
C1441       C  0.36514296  0.86113874  0.11955326    -0.40300
C1442       C  0.35077595  0.88339865  0.12932888     0.33100
C1443       C  0.37056998  0.98461028  0.12120226     0.01700
F1444       F  0.39722517  0.93787550  0.10045828    -0.12600
F1445       F  0.33562060  0.86628303  0.13904116    -0.13100
C1446       C  0.37381289  0.00205740  0.13917564     0.16600
C1447       C  0.37719584  0.04177260  0.14042432     0.26000
C1448       C  0.37764619  0.06453737  0.12367639    -0.40200
C1449       C  0.37480799  0.04684081  0.10563519     0.33000
C1450       C  0.37118880  0.00722288  0.10443612     0.14700
F1451       F  0.37402374  0.98046898  0.15548578    -0.12600
F1452       F  0.37448950  0.06816111  0.08922790    -0.13100
F1453       F  0.38012981  0.05797937  0.15799244    -0.15400
F1454       F  0.36783919  0.99100381  0.08692838    -0.14000
F1455       F  0.33823626  0.94469043  0.13903534    -0.14000
F1456       F  0.39468036  0.86078148  0.09955644    -0.15400
C1457       C  0.38730059  0.41822681  0.12892293     0.14700
C1458       C  0.37034693  0.44103508  0.12609146     0.01600
C1459       C  0.35194765  0.42290241  0.12239518     0.16600
C1460       C  0.35057048  0.38252711  0.12164222     0.26000
C1461       C  0.36751210  0.35968828  0.12490972    -0.40300
C1462       C  0.38592624  0.37812701  0.12844336     0.33100
C1463       C  0.37217880  0.48367288  0.12619644     0.01700
F1464       F  0.33525392  0.44431307  0.11977069    -0.12600
F1465       F  0.40289155  0.35740784  0.13093336    -0.13100
C1466       C  0.36602171  0.50497590  0.11012907     0.16600
C1467       C  0.36791700  0.54504205  0.10990173     0.26000
C1468       C  0.37621750  0.56494915  0.12576670    -0.40200
C1469       C  0.38288778  0.54340694  0.14169185     0.33000
C1470       C  0.38078225  0.50315614  0.14193287     0.14700
F1471       F  0.35847858  0.48686559  0.09439312    -0.12600
F1472       F  0.39094231  0.56121840  0.15726127    -0.13100
F1473       F  0.36165195  0.56418904  0.09395572    -0.15400
F1474       F  0.38678918  0.48324539  0.15773022    -0.14000
F1475       F  0.40541188  0.43482071  0.13160992    -0.14000
F1476       F  0.33264355  0.36588058  0.11812641    -0.15400
C1477       C  0.26421161  0.17103142  0.11094128     0.14700
C1478       C  0.26050844  0.13512196  0.11969847     0.01600
C1479       C  0.27578136  0.11719536  0.13009209     0.16600
C1480       C  0.29439066  0.13476120  0.13190905     0.26000
C1481       C  0.29827723  0.17113548  0.12339104    -0.40300
C1482       C  0.28292229  0.18890984  0.11273948     0.33100
C1483       C  0.24054421  0.11676996  0.11890922     0.01700
F1484       F  0.27271486  0.08215421  0.13836081    -0.12600
F1485       F  0.28589565  0.22365747  0.10417390    -0.13100
C1486       C  0.23255873  0.10313622  0.10147621     0.16600
C1487       C  0.21379730  0.08517229  0.10108745     0.26000
C1488       C  0.20263705  0.08089184  0.11814747    -0.40200
C1489       C  0.21095313  0.09405469  0.13561455     0.33000
C1490       C  0.22966210  0.11166870  0.13596163     0.14700
F1491       F  0.24297529  0.10712529  0.08485090    -0.12600
F1492       F  0.20091454  0.09011966  0.15247289    -0.13100
F1493       F  0.20625583  0.07342448  0.08393241    -0.15400
F1494       F  0.23704125  0.12452178  0.15299981    -0.14000
F1495       F  0.24956004  0.18915325  0.10098990    -0.14000
F1496       F  0.30871676  0.11534384  0.14171690    -0.15400
C1497       C  0.47342542  0.28777314  0.11860672     0.14700
C1498       C  0.48755168  0.26165621  0.11161610     0.01600
C1499       C  0.48149302  0.22474523  0.10562775     0.16600
C1500       C  0.46151396  0.21354047  0.10732285     0.26000
C1501       C  0.44742307  0.23913563  0.11520922    -0.40300
C1502       C  0.45355213  0.27677598  0.12033562     0.33100
C1503       C  0.50883034  0.27139481  0.11302925     0.01700
F1504       F  0.49509452  0.19906595  0.09894646    -0.12600
F1505       F  0.44032490  0.30312851  0.12710364    -0.13100
C1506       C  0.51824623  0.26851146  0.13095095     0.16600
C1507       C  0.53844920  0.27684816  0.13274306     0.26000
C1508       C  0.54964079  0.28849394  0.11659521    -0.40200
C1509       C  0.53997984  0.29271427  0.09871579     0.33000
C1510       C  0.51967273  0.28398883  0.09694382     0.14700
F1511       F  0.50785237  0.25693226  0.14670045    -0.12600
F1512       F  0.55033220  0.30356429  0.08282917    -0.13100
F1513       F  0.54708794  0.27333882  0.15033005    -0.15400
F1514       F  0.51062817  0.28743858  0.07955935    -0.14000
F1515       F  0.47904187  0.32368445  0.12429212    -0.14000
F1516       F  0.45617720  0.17723370  0.10206337    -0.15400
C1517       C  0.39314368  0.24236652  0.22882591     0.14700
C1518       C  0.37518936  0.24310795  0.23922319     0.01600
C1519       C  0.35740534  0.23320813  0.22972018     0.16600
C1520       C  0.35750047  0.22346668  0.21013734     0.26000
C1521       C  0.37536664  0.22388443  0.19957418    -0.40300
C1522       C  0.39322289  0.23307489  0.20917865     0.33100
C1523       C  0.37484955  0.25459612  0.25988252     0.01700
F1524       F  0.33977910  0.23444749  0.23925621    -0.12600
F1525       F  0.41080987  0.23283693  0.19954789    -0.13100
C1526       C  0.38183248  0.29109297  0.26574939     0.16600
C1527       C  0.38071719  0.30236945  0.28514062     0.26000
C1528       C  0.37239455  0.27749131  0.29902135    -0.40200
C1529       C  0.36571249  0.24072550  0.29310510     0.33000
C1530       C  0.36700535  0.22941714  0.27380092     0.14700
F1531       F  0.38926273  0.31625593  0.25259538    -0.12600
F1532       F  0.35842484  0.21509783  0.30611920    -0.13100
F1533       F  0.38729697  0.33800798  0.29022284    -0.15400
F1534       F  0.36087806  0.19345648  0.26872663    -0.14000
F1535       F  0.41064045  0.25043485  0.23773834    -0.14000
F1536       F  0.33994389  0.21565342  0.20128200    -0.15400
C1537       C  0.12042227  0.98476259  0.51310244     0.14700
C1538       C  0.12511135  0.95168445  0.50240304     0.01600
C1539       C  0.12996586  0.91739871  0.51212237     0.16600
C1540       C  0.13036814  0.91636482  0.53231494     0.26000
C1541       C  0.12597124  0.94977776  0.54315627    -0.40300
C1542       C  0.12087518  0.98394138  0.53321705     0.33100
C1543       C  0.12528469  0.95354573  0.48109266     0.01700
F1544       F  0.13408972  0.88479821  0.50202722    -0.12600
F1545       F  0.11680007  0.01706922  0.54289282    -0.13100
C1546       C  0.14334587  0.95155880  0.47095974     0.16600
C1547       C  0.14366513  0.95546301  0.45087847     0.26000
C1548       C  0.12584594  0.96074578  0.44055282    -0.40200
C1549       C  0.10774559  0.96252698  0.45078238     0.33000
C1550       C  0.10750652  0.95923358  0.47086838     0.14700
F1551       F  0.16071673  0.94634938  0.48058475    -0.12600
F1552       F  0.09028014  0.96818032  0.44136507    -0.13100
F1553       F  0.16134298  0.95299100  0.44150052    -0.15400
F1554       F  0.08988011  0.96135894  0.48037290    -0.14000
F1555       F  0.11585484  0.01829156  0.50399569    -0.14000
F1556       F  0.13479673  0.88252447  0.54119297    -0.15400
C1557       C  0.14534984  0.46431731  0.47987916     0.14700
C1558       C  0.12734361  0.46012163  0.48991719     0.01600
C1559       C  0.10955444  0.45580410  0.47954852     0.16600
C1560       C  0.10975742  0.45555301  0.45939734     0.26000
C1561       C  0.12778836  0.46002478  0.44924312    -0.40300
C1562       C  0.14559101  0.46444925  0.45974796     0.33100
C1563       C  0.12724520  0.45971591  0.51121823     0.01700
F1564       F  0.09199951  0.45133487  0.48897350    -0.12600
F1565       F  0.16332738  0.46822887  0.45056943    -0.13100
C1566       C  0.11751551  0.48886425  0.52162577     0.16600
C1567       C  0.11792883  0.48893579  0.54178413     0.26000
C1568       C  0.12810670  0.45966736  0.55195335    -0.40200
C1569       C  0.13758523  0.43013866  0.54131453     0.33000
C1570       C  0.13716542  0.43030694  0.52120640     0.14700
F1571       F  0.10791567  0.51773120  0.51222370    -0.12600
F1572       F  0.14719379  0.40071033  0.55026435    -0.13100
F1573       F  0.10842100  0.51784474  0.55124510    -0.15400
F1574       F  0.14627026  0.40132486  0.51142373    -0.14000
F1575       F  0.16271800  0.46870389  0.48963096    -0.14000
F1576       F  0.09223141  0.45177289  0.44985685    -0.15400
C1577       C  0.14783334  0.66480655  0.64071463     0.14700
C1578       C  0.12959562  0.68374296  0.63764594     0.01600
C1579       C  0.11248226  0.66180288  0.63396532     0.16600
C1580       C  0.11376840  0.62174297  0.63216599     0.26000
C1581       C  0.13226438  0.60277396  0.63400160    -0.40300
C1582       C  0.14916257  0.62460143  0.63899217     0.33100
C1583       C  0.12888415  0.72620223  0.63552365     0.01700
F1584       F  0.09467079  0.67937249  0.63106346    -0.12600
F1585       F  0.16712304  0.60733978  0.64136901    -0.13100
C1586       C  0.13972155  0.74353023  0.62061919     0.16600
C1587       C  0.13822425  0.78303950  0.61719894     0.26000
C1588       C  0.12569368  0.80644160  0.62861990    -0.40200
C1589       C  0.11495288  0.78896725  0.64378472     0.33000
C1590       C  0.11649534  0.74913733  0.64713020     0.14700
F1591       F  0.15143000  0.72183079  0.60892033    -0.12600
F1592       F  0.10291566  0.81020956  0.65536867    -0.13100
F1593       F  0.14926384  0.79816834  0.60266543    -0.15400
F1594       F  0.10595982  0.73296166  0.66173571    -0.14000
F1595       F  0.16448554  0.68548995  0.64476758    -0.14000
F1596       F  0.09684508  0.60157934  0.62848699    -0.15400
C1597       C  0.11356587  0.24231687  0.63240388     0.14700
C1598       C  0.13043367  0.22529176  0.62401355     0.01600
C1599       C  0.14591956  0.24864466  0.61730183     0.16600
C1600       C  0.14450912  0.28868299  0.61859940     0.26000
C1601       C  0.12745071  0.30626594  0.62665996    -0.40300
C1602       C  0.11210689  0.28260969  0.63384044     0.33100
C1603       C  0.13196593  0.18311697  0.62190089     0.01700
F1604       F  0.16235542  0.23255572  0.60923306    -0.12600
F1605       F  0.09552301  0.29838325  0.64174165    -0.13100
C1606       C  0.12263468  0.16455039  0.60642891     0.16600
C1607       C  0.12451303  0.12464660  0.60405164     0.26000
C1608       C  0.13581892  0.10259729  0.61718996    -0.40200
C1609       C  0.14547376  0.12170501  0.63251025     0.33000
C1610       C  0.14357911  0.16164767  0.63477344     0.14700
F1611       F  0.11177949  0.18520713  0.59356094    -0.12600
F1612       F  0.15612313  0.10168415  0.64577425    -0.13100
F1613       F  0.11520269  0.10768619  0.58889763    -0.15400
F1614       F  0.15283538  0.17940258  0.64972552    -0.14000
F1615       F  0.09851403  0.21986319  0.63909097    -0.14000
F1616       F  0.16003862  0.31017651  0.61209837    -0.15400
C1617       C  0.13526869  0.51392465  0.97800694     0.14700
C1618       C  0.13253537  0.54831115  0.98845036     0.01600
C1619       C  0.12930637  0.58293293  0.97834669     0.16600
C1620       C  0.12827394  0.58302767  0.95822157     0.26000
C1621       C  0.13075484  0.54856094  0.94775589    -0.40300
C1622       C  0.13449332  0.51406960  0.95784200     0.33100
C1623       C  0.13204473  0.54785628  0.00984880     0.01700
F1624       F  0.12722688  0.61677532  0.98800992    -0.12600
F1625       F  0.13651980  0.48016863  0.94822284    -0.13100
C1626       C  0.14836916  0.53447588  0.02058051     0.16600
C1627       C  0.14766855  0.53395061  0.04077123     0.26000
C1628       C  0.13054162  0.54685561  0.05069280    -0.40200
C1629       C  0.11422340  0.56019308  0.03975430     0.33000
C1630       C  0.11499816  0.56063305  0.01963946     0.14700
F1631       F  0.16519066  0.52263957  0.01149705    -0.12600
F1632       F  0.09728966  0.57259338  0.04843071    -0.13100
F1633       F  0.16392441  0.52135602  0.05051988    -0.15400
F1634       F  0.09884217  0.57297497  0.00965243    -0.14000
F1635       F  0.13793107  0.47991705  0.98737101    -0.14000
F1636       F  0.12514608  0.61699540  0.94894440    -0.15400
C1637       C  0.11439914  0.47671434  0.77421430     0.14700
C1638       C  0.12076302  0.50323001  0.76024143     0.01600
C1639       C  0.12580731  0.54098517  0.76594285     0.16600
C1640       C  0.12483261  0.55179396  0.78536851     0.26000
C1641       C  0.11858916  0.52510399  0.79943376    -0.40300
C1642       C  0.11320814  0.48750950  0.79355180     0.33100
C1643       C  0.12264018  0.49098340  0.73985188     0.01700
F1644       F  0.13160532  0.56746538  0.75266033    -0.12600
F1645       F  0.10761010  0.46042584  0.80660935    -0.13100
C1646       C  0.10621112  0.47562204  0.72991673     0.16600
C1647       C  0.10804574  0.46386571  0.71070626     0.26000
C1648       C  0.12637308  0.46751417  0.70098807    -0.40200
C1649       C  0.14289970  0.48222575  0.71117291     0.33000
C1650       C  0.14102978  0.49376610  0.73036554     0.14700
F1651       F  0.08818436  0.47311717  0.73866440    -0.12600
F1652       F  0.16097307  0.48558437  0.70258069    -0.13100
F1653       F  0.09164265  0.45046367  0.70145002    -0.15400
F1654       F  0.15730345  0.50736428  0.73977158    -0.14000
F1655       F  0.11005086  0.43974575  0.76922505    -0.14000
F1656       F  0.12989249  0.58840810  0.79036315    -0.15400
C1657       C  0.10727267  0.05644665  0.96961908     0.14700
C1658       C  0.12448745  0.04759501  0.98018287     0.01600
C1659       C  0.14209830  0.03840662  0.97027584     0.16600
C1660       C  0.14255462  0.03825028  0.95015970     0.26000
C1661       C  0.12541585  0.04778033  0.93948701    -0.40300
C1662       C  0.10771247  0.05665391  0.94949951     0.33100
C1663       C  0.12420524  0.04808809  0.00151971     0.01700
F1664       F  0.15905783  0.03042979  0.98012060    -0.12600
F1665       F  0.09064376  0.06488717  0.93987727    -0.13100
C1666       C  0.13019176  0.01534834  0.01195390     0.16600
C1667       C  0.13102749  0.01635166  0.03204534     0.26000
C1668       C  0.12550860  0.04991788  0.04214061    -0.40200
C1669       C  0.11898567  0.08237995  0.03170553     0.33000
C1670       C  0.11848369  0.08155028  0.01156544     0.14700
F1671       F  0.13500982  0.98215136  0.00265786    -0.12600
F1672       F  0.11376470  0.11540165  0.04095060    -0.13100
F1673       F  0.13682569  0.98412037  0.04164412    -0.15400
F1674       F  0.11297679  0.11384280  0.00184958    -0.14000
F1675       F  0.08988916  0.06426141  0.97879429    -0.14000
F1676       F  0.15994343  0.02954087  0.94120615    -0.15400
C1677       C  0.11386863  0.75699881  0.88797061     0.14700
C1678       C  0.12530875  0.77690071  0.87427659     0.01600
C1679       C  0.13385130  0.75644664  0.85894514     0.16600
C1680       C  0.13119221  0.71656411  0.85740031     0.26000
C1681       C  0.11985845  0.69624185  0.87123684    -0.40300
C1682       C  0.11106389  0.71716527  0.88644736     0.33100
C1683       C  0.12696683  0.81939518  0.87510839     0.01700
F1684       F  0.14448342  0.77526112  0.84521070    -0.12600
F1685       F  0.09985522  0.69922113  0.90003221    -0.13100
C1686       C  0.14562380  0.83785167  0.87586148     0.16600
C1687       C  0.14686426  0.87825947  0.87522308     0.26000
C1688       C  0.12943137  0.90053409  0.87368251    -0.40200
C1689       C  0.11080782  0.88181056  0.87378961     0.33000
C1690       C  0.10961872  0.84174871  0.87434570     0.14700
F1691       F  0.16259247  0.81671195  0.87699935    -0.12600
F1692       F  0.09359905  0.90233062  0.87321004    -0.13100
F1693       F  0.16504585  0.89537847  0.87531887    -0.15400
F1694       F  0.09144265  0.82468278  0.87338163    -0.14000
F1695       F  0.10551968  0.77620939  0.90297649    -0.14000
F1696       F  0.13999869  0.69799527  0.84244024    -0.15400
C1697       C  0.11043539  0.25656909  0.88005888     0.14700
C1698       C  0.12518933  0.27630431  0.86970083     0.01600
C1699       C  0.13738476  0.25600902  0.85689311     0.16600
C1700       C  0.13514630  0.21624911  0.85459941     0.26000
C1701       C  0.12051826  0.19589474  0.86511076    -0.40300
C1702       C  0.10809010  0.21663787  0.87781459     0.33100
C1703       C  0.12697054  0.31858791  0.87093326     0.01700
F1704       F  0.15159532  0.27485909  0.84664175    -0.12600
F1705       F  0.09358405  0.19845247  0.88797150    -0.13100
C1706       C  0.13659643  0.33643889  0.88653109     0.16600
C1707       C  0.13845049  0.37678349  0.88717174     0.26000
C1708       C  0.13048461  0.39955868  0.87227322    -0.40200
C1709       C  0.12129886  0.38115683  0.85646713     0.33000
C1710       C  0.11955385  0.34113357  0.85586242     0.14700
F1711       F  0.14411193  0.31478086  0.90109623    -0.12600
F1712       F  0.11392544  0.40194650  0.84150316    -0.13100
F1713       F  0.14731153  0.39353026  0.90262092    -0.15400
F1714       F  0.11035628  0.32425220  0.84061539    -0.14000
F1715       F  0.09810311  0.27611626  0.89208588    -0.14000
F1716       F  0.14774090  0.19771153  0.84242718    -0.15400
C1717       C  0.14944670  0.00056618  0.72061875     0.14700
C1718       C  0.13201527  0.99549161  0.73145590     0.01600
C1719       C  0.11485074  0.98109695  0.72247132     0.16600
C1720       C  0.11502991  0.97183698  0.70292470     0.26000
C1721       C  0.13245725  0.97695028  0.69189433    -0.40300
C1722       C  0.14968976  0.99142514  0.70100620     0.33100
C1723       C  0.13157379  0.00492010  0.75218432     0.01700
F1724       F  0.09770375  0.97677902  0.73260252    -0.12600
F1725       F  0.16689941  0.99636691  0.69104957    -0.13100
C1726       C  0.13499964  0.04282892  0.75854623     0.16600
C1727       C  0.13329930  0.05202890  0.77808972     0.26000
C1728       C  0.12805929  0.02338896  0.79159712    -0.40200
C1729       C  0.12507987  0.98519722  0.78511959     0.33000
C1730       C  0.12686179  0.97614187  0.76563114     0.14700
F1731       F  0.13939633  0.07119289  0.74573979    -0.12600
F1732       F  0.12071164  0.95628901  0.79763544    -0.13100
F1733       F  0.13629185  0.08915862  0.78365934    -0.15400
F1734       F  0.12408415  0.93906201  0.75985075    -0.14000
F1735       F  0.16632188  0.01379200  0.72911799    -0.14000
F1736       F  0.09793461  0.95885736  0.69475895    -0.15400
C1737       C  0.88741813  0.98548295  0.97814530     0.14700
C1738       C  0.87239798  0.96770836  0.98902412     0.01600
C1739       C  0.85666479  0.94897631  0.97956609     0.16600
C1740       C  0.85594396  0.94798242  0.95947229     0.26000
C1741       C  0.87101481  0.96576954  0.94845060    -0.40300
C1742       C  0.88676966  0.98454606  0.95804919     0.33100
C1743       C  0.87326880  0.96831405  0.01026151     0.01700
F1744       F  0.84179357  0.93218391  0.98983078    -0.12600
F1745       F  0.90181673  0.00135319  0.94804131    -0.13100
C1746       C  0.87251807  0.00349316  0.02029343     0.16600
C1747       C  0.87329226  0.00398027  0.04041626     0.26000
C1748       C  0.87470402  0.96920112  0.05080616    -0.40200
C1749       C  0.87552524  0.93401350  0.04066933     0.33000
C1750       C  0.87486823  0.93362379  0.02057372     0.14700
F1751       F  0.87051322  0.03729060  0.01058262    -0.12600
F1752       F  0.87734083  0.89996803  0.05019906    -0.13100
F1753       F  0.87190846  0.03833322  0.04973585    -0.15400
F1754       F  0.87607595  0.89937083  0.01112791    -0.14000
F1755       F  0.90296857  0.00307825  0.98702808    -0.14000
F1756       F  0.84025257  0.93026338  0.95087066    -0.15400
C1757       C  0.97158009  0.03260811  0.87629028     0.14700
C1758       C  0.98503798  0.00744020  0.86727802     0.01600
C1759       C  0.97781599  0.97273689  0.85936285     0.16600
C1760       C  0.95753011  0.96333225  0.86049248     0.26000
C1761       C  0.94400876  0.98831320  0.86975598    -0.40300
C1762       C  0.95139425  0.02316480  0.87763022     0.33100
C1763       C  0.00661800  0.01709778  0.86652507     0.01700
F1764       F  0.99051555  0.94741481  0.85090690    -0.12600
F1765       F  0.93907997  0.04876836  0.88641548    -0.13100
C1766       C  0.01712371  0.02549058  0.88355600     0.16600
C1767       C  0.03749971  0.03379034  0.88298153     0.26000
C1768       C  0.04788688  0.03316447  0.86541008    -0.40200
C1769       C  0.03738550  0.02515312  0.84834751     0.33000
C1770       C  0.01690165  0.01764443  0.84887577     0.14700
F1771       F  0.00779687  0.02428685  0.90088569    -0.12600
F1772       F  0.04693000  0.02500710  0.83111647    -0.13100
F1773       F  0.04727897  0.04048750  0.89976126    -0.15400
F1774       F  0.00706190  0.01126961  0.83210566    -0.14000
F1775       F  0.97793493  0.06687774  0.88355713    -0.14000
F1776       F  0.95125856  0.92945016  0.85276461    -0.15400
C1777       C  0.87362026  0.50555167  0.99298416     0.14700
C1778       C  0.87054790  0.47139871  0.00348882     0.01600
C1779       C  0.86743793  0.43663497  0.99352582     0.16600
C1780       C  0.86717197  0.43599368  0.97341215     0.26000
C1781       C  0.86998014  0.47023213  0.96276990    -0.40300
C1782       C  0.87338477  0.50502031  0.97282400     0.33100
C1783       C  0.87032607  0.47184225  0.02483001     0.01700
F1784       F  0.86429370  0.40325805  0.00332314    -0.12600
F1785       F  0.87614396  0.53873010  0.96320749    -0.13100
C1786       C  0.85639374  0.49441103  0.03483840     0.16600
C1787       C  0.85556506  0.49346577  0.05496502     0.26000
C1788       C  0.86868605  0.46974822  0.06555838    -0.40200
C1789       C  0.88281641  0.44750053  0.05537488     0.33000
C1790       C  0.88361512  0.44865845  0.03527286     0.14700
F1791       F  0.84323753  0.51678734  0.02507358    -0.12600
F1792       F  0.89590394  0.42434206  0.06476458    -0.13100
F1793       F  0.84187786  0.51590858  0.06398419    -0.15400
F1794       F  0.89754421  0.42726351  0.02596160    -0.14000
F1795       F  0.87704498  0.53941294  0.00227205    -0.14000
F1796       F  0.86443061  0.40161249  0.96439668    -0.15400
C1797       C  0.88351133  0.75152940  0.86910617     0.14700
C1798       C  0.86490591  0.73567506  0.87404401     0.01600
C1799       C  0.84857956  0.76007941  0.87676278     0.16600
C1800       C  0.85087987  0.79993847  0.87528367     0.26000
C1801       C  0.86960886  0.81624871  0.87098751    -0.40300
C1802       C  0.88582648  0.79169332  0.86739101     0.33100
C1803       C  0.86256307  0.69392126  0.87753200     0.01700
F1804       F  0.83053007  0.74529076  0.88158600    -0.12600
F1805       F  0.90401386  0.80655320  0.86320596    -0.13100
C1806       C  0.86963536  0.67774657  0.89470377     0.16600
C1807       C  0.86727625  0.63832717  0.89829194     0.26000
C1808       C  0.85784752  0.61429292  0.88467369    -0.40200
C1809       C  0.85002255  0.63101192  0.86779359     0.33000
C1810       C  0.85234867  0.67057952  0.86429995     0.14700
F1811       F  0.87879771  0.70026543  0.90803201    -0.12600
F1812       F  0.84104557  0.60885608  0.85420219    -0.13100
F1813       F  0.87438926  0.62361265  0.91505176    -0.15400
F1814       F  0.84509823  0.68600748  0.84776413    -0.14000
F1815       F  0.89945127  0.72811514  0.86635357    -0.14000
F1816       F  0.83473119  0.82275615  0.87827465    -0.15400
C1817       C  0.85312352  0.17670465  0.86298700     0.14700
C1818       C  0.86303677  0.19462492  0.87848496     0.01600
C1819       C  0.87035469  0.17148411  0.89350155     0.16600
C1820       C  0.86795509  0.13153633  0.89308962     0.26000
C1821       C  0.85873735  0.11320230  0.87730594    -0.40300
C1822       C  0.85106051  0.13628894  0.86235007     0.33100
C1823       C  0.86556841  0.23731845  0.87952605     0.01700
F1824       F  0.88040965  0.18750045  0.90846927    -0.12600
F1825       F  0.84225618  0.11979073  0.84680289    -0.13100
C1826       C  0.85964254  0.25715382  0.89619209     0.16600
C1827       C  0.86310716  0.29665424  0.89812647     0.26000
C1828       C  0.87202755  0.31807960  0.88309712    -0.40200
C1829       C  0.87785862  0.29822346  0.86627292     0.33000
C1830       C  0.87478130  0.25820500  0.86458206     0.14700
F1831       F  0.85016800  0.23826062  0.91067654    -0.12600
F1832       F  0.88628649  0.31744253  0.85131803    -0.13100
F1833       F  0.85744112  0.31379202  0.91483647    -0.15400
F1834       F  0.88110290  0.23978468  0.84845506    -0.14000
F1835       F  0.84541653  0.19830224  0.84849169    -0.14000
F1836       F  0.87496265  0.11070172  0.90820182    -0.15400
C1837       C  0.01350045  0.55110853  0.88825601     0.14700
C1838       C  0.00684645  0.51256664  0.88854326     0.01600
C1839       C  0.02082917  0.48257432  0.88757514     0.16600
C1840       C  0.04104785  0.49083613  0.88549673     0.26000
C1841       C  0.04772719  0.52933196  0.88452663    -0.40300
C1842       C  0.03383891  0.55945598  0.88634162     0.33100
C1843       C  0.98531578  0.50338521  0.88882508     0.01700
F1844       F  0.01484467  0.44516823  0.88857792    -0.12600
F1845       F  0.03982829  0.59684140  0.88530728    -0.13100
C1846       C  0.97667297  0.48340096  0.87333076     0.16600
C1847       C  0.95631075  0.47495695  0.87327488     0.26000
C1848       C  0.94412869  0.48639781  0.88876554    -0.40200
C1849       C  0.95296989  0.50592285  0.90445470     0.33000
C1850       C  0.97335206  0.51432417  0.90444287     0.14700
F1851       F  0.98792376  0.47296427  0.85794963    -0.12600
F1852       F  0.94195579  0.51670296  0.91993835    -0.13100
F1853       F  0.94845988  0.45679432  0.85770873    -0.15400
F1854       F  0.98147472  0.53275399  0.91980757    -0.14000
F1855       F  0.00022544  0.58059658  0.88903113    -0.14000
F1856       F  0.05416981  0.46108064  0.88457150    -0.15400
C1857       C  0.85521092  0.54780465  0.49245567     0.14700
C1858       C  0.87142561  0.53121681  0.50210268     0.01600
C1859       C  0.88744986  0.51653227  0.49141655     0.16600
C1860       C  0.88743715  0.51896528  0.47133343     0.26000
C1861       C  0.87137435  0.53633857  0.46157086    -0.40300
C1862       C  0.85515818  0.55040276  0.47239112     0.33100
C1863       C  0.87199968  0.53090371  0.52334920     0.01700
F1864       F  0.90318751  0.50001084  0.50048557    -0.12600
F1865       F  0.83919322  0.56671559  0.46360801    -0.13100
C1866       C  0.85737601  0.51125073  0.53392672     0.16600
C1867       C  0.85748058  0.51246176  0.55404494     0.26000
C1868       C  0.87226163  0.53354380  0.56398263    -0.40200
C1869       C  0.88710584  0.55267342  0.55319478     0.33000
C1870       C  0.88690571  0.55137998  0.53311469     0.14700
F1871       F  0.84300711  0.49074247  0.52473022    -0.12600
F1872       F  0.90185943  0.57287942  0.56197080    -0.13100
F1873       F  0.84293830  0.49327566  0.56368442    -0.15400
F1874       F  0.90103770  0.57104630  0.52314437    -0.14000
F1875       F  0.83966052  0.56258146  0.50253460    -0.14000
F1876       F  0.90346052  0.50537159  0.46154581    -0.15400
C1877       C  0.02484857  0.51634465  0.62026053     0.14700
C1878       C  0.01129669  0.49001597  0.62820347     0.01600
C1879       C  0.01828075  0.45409453  0.63481130     0.16600
C1880       C  0.03861677  0.44507335  0.63392027     0.26000
C1881       C  0.05234229  0.47183745  0.62631153    -0.40300
C1882       C  0.04507320  0.50742848  0.61925101     0.33100
C1883       C  0.99003941  0.50086299  0.63014213     0.01700
F1884       F  0.00536182  0.42768733  0.64207790    -0.12600
F1885       F  0.05758391  0.53456845  0.61198270    -0.13100
C1886       C  0.97887746  0.51171200  0.61389108     0.16600
C1887       C  0.95897769  0.52296765  0.61583304     0.26000
C1888       C  0.94980995  0.52304215  0.63404573    -0.40200
C1889       C  0.96106933  0.51266323  0.65031615     0.33000
C1890       C  0.98102252  0.50188191  0.64838741     0.14700
F1891       F  0.98711287  0.51038368  0.59605248    -0.12600
F1892       F  0.95278881  0.51333213  0.66814578    -0.13100
F1893       F  0.94842567  0.53200323  0.59978445    -0.15400
F1894       F  0.99165175  0.49297400  0.66439879    -0.14000
F1895       F  0.01858906  0.55153060  0.61412186    -0.14000
F1896       F  0.04480100  0.41015747  0.64046251    -0.15400
C1897       C  0.85501798  0.51559212  0.78479646     0.14700
C1898       C  0.87245496  0.50772832  0.77437628     0.01600
C1899       C  0.88867848  0.49076150  0.78394874     0.16600
C1900       C  0.88732636  0.48089267  0.80344447     0.26000
C1901       C  0.86973974  0.48822055  0.81392876    -0.40300
C1902       C  0.85368209  0.50621009  0.80433831     0.33100
C1903       C  0.87333126  0.51526011  0.75333972     0.01700
F1904       F  0.90597625  0.48401109  0.77441598    -0.12600
F1905       F  0.83646468  0.51436633  0.81371894    -0.13100
C1906       C  0.86896088  0.55200595  0.74577556     0.16600
C1907       C  0.86905934  0.55825800  0.72583920     0.26000
C1908       C  0.87387113  0.52801608  0.71312074    -0.40200
C1909       C  0.87839217  0.49136141  0.72078636     0.33000
C1910       C  0.87798676  0.48505576  0.74062384     0.14700
F1911       F  0.86487092  0.58201434  0.75770952    -0.12600
F1912       F  0.88260874  0.46106022  0.70906314    -0.13100
F1913       F  0.86481902  0.59406639  0.71903452    -0.15400
F1914       F  0.88158411  0.44894444  0.74739145    -0.14000
F1915       F  0.83897013  0.53136362  0.77590319    -0.14000
F1916       F  0.90341441  0.46463454  0.81203672    -0.15400
C1917       C  0.87459428  0.01160668  0.52098698     0.14700
C1918       C  0.87349528  0.04683830  0.51103605     0.01600
C1919       C  0.87352957  0.08162771  0.52142722     0.16600
C1920       C  0.87443191  0.08119247  0.54150383     0.26000
C1921       C  0.87559626  0.04590726  0.55149765    -0.40300
C1922       C  0.87580868  0.01112577  0.54103397     0.33100
C1923       C  0.87256419  0.04726423  0.48980897     0.01700
F1924       F  0.87303385  0.11606925  0.51209748    -0.12600
F1925       F  0.87648206  0.97654264  0.55021739    -0.13100
C1926       C  0.85680283  0.06576001  0.48028988     0.16600
C1927       C  0.85610086  0.06653844  0.46020062     0.26000
C1928       C  0.87113596  0.04851563  0.44923912    -0.40200
C1929       C  0.88678959  0.02958107  0.45892491     0.33000
C1930       C  0.88751580  0.02918785  0.47898309     0.14700
F1931       F  0.84188623  0.08256089  0.49047605    -0.12600
F1932       F  0.90166089  0.01187436  0.44907241    -0.13100
F1933       F  0.84053048  0.08453922  0.45157219    -0.15400
F1934       F  0.90311000  0.01176271  0.48786573    -0.14000
F1935       F  0.87401747  0.97757817  0.51128855    -0.14000
F1936       F  0.87455584  0.11532576  0.55112768    -0.15400
C1937       C  0.85367927  0.83120674  0.63399885     0.14700
C1938       C  0.87163094  0.81176847  0.63035105     0.01600
C1939       C  0.88832132  0.83276584  0.62428188     0.16600
C1940       C  0.88717946  0.87261266  0.62184571     0.26000
C1941       C  0.86926453  0.89247721  0.62559402    -0.40300
C1942       C  0.85248486  0.87128999  0.63166298     0.33100
C1943       C  0.87311045  0.76949130  0.63255688     0.01700
F1944       F  0.90596038  0.81468203  0.62117217    -0.12600
F1945       F  0.83489774  0.88922035  0.63519569    -0.13100
C1946       C  0.87832067  0.74659321  0.61668363     0.16600
C1947       C  0.88042792  0.70673044  0.61868594     0.26000
C1948       C  0.87724723  0.68887885  0.63666601    -0.40200
C1949       C  0.87204679  0.71204005  0.65259750     0.33000
C1950       C  0.87004343  0.75202001  0.65053927     0.14700
F1951       F  0.88096619  0.76286939  0.59908054    -0.12600
F1952       F  0.86901481  0.69612031  0.67021760    -0.13100
F1953       F  0.88484666  0.68557066  0.60279593    -0.15400
F1954       F  0.86542506  0.77378635  0.66617267    -0.14000
F1955       F  0.83725814  0.81128385  0.63959030    -0.14000
F1956       F  0.90392446  0.89178487  0.61648222    -0.15400
C1957       C  0.87766612  0.33139880  0.65305205     0.14700
C1958       C  0.87123827  0.31120571  0.63671871     0.01600
C1959       C  0.86234650  0.33145867  0.62144061     0.16600
C1960       C  0.86039472  0.37162637  0.62228730     0.26000
C1961       C  0.86739003  0.39207422  0.63843122    -0.40300
C1962       C  0.87577216  0.37145284  0.65392806     0.33100
C1963       C  0.87346268  0.26888633  0.63581695     0.01700
F1964       F  0.85613587  0.31240097  0.60544457    -0.12600
F1965       F  0.88216047  0.39007708  0.66998823    -0.13100
C1966       C  0.85649513  0.24552387  0.63443305     0.16600
C1967       C  0.85840612  0.20555869  0.63331535     0.26000
C1968       C  0.87732853  0.18821144  0.63369262    -0.40200
C1969       C  0.89434655  0.21142372  0.63553837     0.33000
C1970       C  0.89242363  0.25165778  0.63649272     0.14700
F1971       F  0.83803733  0.26146881  0.63437246    -0.12600
F1972       F  0.91275791  0.19531849  0.63558451    -0.13100
F1973       F  0.84168582  0.18361710  0.63210215    -0.15400
F1974       F  0.90903924  0.27389188  0.63752431    -0.14000
F1975       F  0.88566345  0.31221018  0.66823517    -0.14000
F1976       F  0.85257179  0.39057773  0.60694637    -0.15400
C1977       C  0.02508206  0.01349952  0.61189037     0.14700
C1978       C  0.01273026  0.99325427  0.62464249     0.01600
C1979       C  0.02077476  0.96323485  0.63576859     0.16600
C1980       C  0.04097528  0.95372533  0.63422425     0.26000
C1981       C  0.05349839  0.97415705  0.62146522    -0.40300
C1982       C  0.04515976  0.00402409  0.61020078     0.33100
C1983       C  0.99129767  0.00270215  0.62556466     0.01700
F1984       F  0.00897094  0.94264106  0.64786739    -0.12600
F1985       F  0.05640221  0.02475964  0.59766448    -0.13100
C1986       C  0.97969284  0.00006559  0.60883823     0.16600
C1987       C  0.95958922  0.00981117  0.60924081     0.26000
C1988       C  0.95053944  0.02217122  0.62647463    -0.40200
C1989       C  0.96222119  0.02507597  0.64326004     0.33000
C1990       C  0.98246268  0.01533925  0.64279171     0.14700
F1991       F  0.98782032  0.98746003  0.59207688    -0.12600
F1992       F  0.95397613  0.03618181  0.66022270    -0.13100
F1993       F  0.94900546  0.00727331  0.59263463    -0.15400
F1994       F  0.99348438  0.01856539  0.65909316    -0.14000
F1995       F  0.01769939  0.04300820  0.60118054    -0.14000
F1996       F  0.04816505  0.92444408  0.64518735    -0.15400
C1997       C  0.85187140  0.00763999  0.77114749     0.14700
C1998       C  0.86872844  0.99759967  0.76036304     0.01600
C1999       C  0.88461008  0.97861349  0.76940797     0.16600
C2000       C  0.88372911  0.96998182  0.78905818     0.26000
C2001       C  0.86686904  0.98028123  0.80005769    -0.40300
C2002       C  0.85090427  0.99911719  0.79076721     0.33100
C2003       C  0.86953295  0.00639950  0.73958164     0.01700
F2004       F  0.90091456  0.96807046  0.75912452    -0.12600
F2005       F  0.83427056  0.00944205  0.80059198    -0.13100
C2006       C  0.88416698  0.03123821  0.73218631     0.16600
C2007       C  0.88484949  0.03949153  0.71248227     0.26000
C2008       C  0.87086025  0.02289795  0.69978233    -0.40200
C2009       C  0.85608518  0.99817318  0.70743228     0.33000
C2010       C  0.85549695  0.99006002  0.72708803     0.14700
F2011       F  0.89766398  0.04791314  0.74412518    -0.12600
F2012       F  0.84221145  0.98130234  0.69596444    -0.13100
F2013       F  0.89924866  0.06366421  0.70593437    -0.15400
F2014       F  0.84137757  0.96554101  0.73391358    -0.14000
F2015       F  0.83641641  0.02634526  0.76269244    -0.14000
F2016       F  0.89958611  0.95219391  0.79729216    -0.15400
C2017       C  0.35513580  0.80137102  0.52042952     0.14700
C2018       C  0.37179744  0.79133456  0.50929662     0.01600
C2019       C  0.38955874  0.78077505  0.51858803     0.16600
C2020       C  0.39076442  0.78085626  0.53869583     0.26000
C2021       C  0.37425892  0.79188108  0.54987223    -0.40300
C2022       C  0.35635665  0.80176948  0.54053238     0.33100
C2023       C  0.37094205  0.79308085  0.48800357     0.01700
F2024       F  0.40596696  0.77162723  0.50813712    -0.12600
F2025       F  0.33990146  0.81117147  0.55087174    -0.13100
C2026       C  0.36695359  0.82821348  0.47866941     0.16600
C2027       C  0.36721751  0.83047866  0.45856055     0.26000
C2028       C  0.37152360  0.79756900  0.44737498    -0.40200
C2029       C  0.37520033  0.76223407  0.45681161     0.33000
C2030       C  0.37484749  0.76004699  0.47691690     0.14700
F2031       F  0.36341489  0.86068332  0.48907621    -0.12600
F2032       F  0.37884594  0.72955624  0.44660465    -0.13100
F2033       F  0.36390493  0.86522377  0.45010186    -0.15400
F2034       F  0.37814686  0.72551492  0.48559850    -0.14000
F2035       F  0.33762130  0.81048378  0.51180920    -0.14000
F2036       F  0.40831659  0.77160792  0.54719320    -0.15400
C2037       C  0.26825680  0.84187626  0.63797715     0.14700
C2038       C  0.26245284  0.86455651  0.62210702     0.01600
C2039       C  0.27560851  0.86870067  0.60657230     0.16600
C2040       C  0.29404632  0.85036580  0.60667858     0.26000
C2041       C  0.30018364  0.82804752  0.62261853    -0.40300
C2042       C  0.28699812  0.82377118  0.63825319     0.33100
C2043       C  0.24244993  0.88271939  0.62102015     0.01700
F2044       F  0.27070879  0.89121731  0.59128236    -0.12600
F2045       F  0.29244243  0.80320581  0.65402363    -0.13100
C2046       C  0.23593563  0.90923786  0.63500072     0.16600
C2047       C  0.21718261  0.92681284  0.63336374     0.26000
C2048       C  0.20463129  0.91825629  0.61762721    -0.40200
C2049       C  0.21152334  0.89233616  0.60345801     0.33000
C2050       C  0.23005539  0.87459898  0.60525315     0.14700
F2051       F  0.24779182  0.91838500  0.65015508    -0.12600
F2052       F  0.20026316  0.88366072  0.58781057    -0.13100
F2053       F  0.21114069  0.95125046  0.64748429    -0.15400
F2054       F  0.23578352  0.84875010  0.59163705    -0.14000
F2055       F  0.25573529  0.83704839  0.65312520    -0.14000
F2056       F  0.30597103  0.85478495  0.59103942    -0.15400
C2057       C  0.36562995  0.32656145  0.47964680     0.14700
C2058       C  0.37061058  0.29208426  0.48916194     0.01600
C2059       C  0.37558961  0.25945903  0.47812655     0.16600
C2060       C  0.37591078  0.26140805  0.45798443     0.26000
C2061       C  0.37108639  0.29605963  0.44836968    -0.40300
C2062       C  0.36576872  0.32853229  0.45951575     0.33100
C2063       C  0.37113148  0.29055805  0.51056298     0.01700
F2064       F  0.37992331  0.22543061  0.48687504    -0.12600
F2065       F  0.36116521  0.36267353  0.45101634    -0.13100
C2066       C  0.35437764  0.30120342  0.52149423     0.16600
C2067       C  0.35523466  0.30152684  0.54164444     0.26000
C2068       C  0.37277919  0.29061036  0.55128572    -0.40200
C2069       C  0.38938287  0.27909590  0.54033460     0.33000
C2070       C  0.38861201  0.27938660  0.52019922     0.14700
F2071       F  0.33707248  0.31087296  0.51264185    -0.12600
F2072       F  0.40666571  0.26894288  0.54909710    -0.13100
F2073       F  0.33875342  0.31178832  0.55172865    -0.15400
F2074       F  0.40520791  0.26995231  0.51009221    -0.14000
F2075       F  0.36118303  0.35882341  0.48988629    -0.14000
F2076       F  0.38070791  0.22908984  0.44794423    -0.15400
C2077       C  0.38802055  0.50329043  0.64360557     0.14700
C2078       C  0.38191392  0.52254999  0.62680632     0.01600
C2079       C  0.37863662  0.50130237  0.60994774     0.16600
C2080       C  0.38096447  0.46138233  0.60986523     0.26000
C2081       C  0.38632096  0.44145176  0.62681731    -0.40300
C2082       C  0.39027082  0.46298058  0.64362809     0.33100
C2083       C  0.37940645  0.56493473  0.62633431     0.01700
F2084       F  0.37264566  0.51925916  0.59356288    -0.12600
F2085       F  0.39557908  0.44506764  0.66022836    -0.13100
C2086       C  0.39118802  0.58692400  0.61382054     0.16600
C2087       C  0.38820451  0.62656364  0.61207958     0.26000
C2088       C  0.37342105  0.64545685  0.62305860    -0.40200
C2089       C  0.36145442  0.62316257  0.63553316     0.33000
C2090       C  0.36445782  0.58321060  0.63713900     0.14700
F2091       F  0.40574481  0.56985843  0.60325803    -0.12600
F2092       F  0.34706511  0.63992833  0.64640577    -0.13100
F2093       F  0.39993543  0.64629594  0.59955695    -0.15400
F2094       F  0.35254960  0.56224066  0.64897839    -0.14000
F2095       F  0.39176349  0.52352820  0.65994919    -0.14000
F2096       F  0.37760952  0.44222939  0.59311263    -0.15400
C2097       C  0.38972933  0.00407568  0.64154408     0.14700
C2098       C  0.37357929  0.02272873  0.63270401     0.01600
C2099       C  0.35906796  0.00091972  0.62322471     0.16600
C2100       C  0.36075285  0.96089924  0.62223091     0.26000
C2101       C  0.37707450  0.94181315  0.63077295    -0.40300
C2102       C  0.39140126  0.96373705  0.64073192     0.33100
C2103       C  0.37255258  0.06509712  0.63162488     0.01700
F2104       F  0.34347861  0.01863379  0.61447048    -0.12600
F2105       F  0.40734133  0.94634519  0.64901589    -0.13100
C2106       C  0.38204797  0.08406990  0.61641097     0.16600
C2107       C  0.37996597  0.12383692  0.61410493     0.26000
C2108       C  0.36836391  0.14563241  0.62713465    -0.40200
C2109       C  0.35874085  0.12626515  0.64240341     0.33000
C2110       C  0.36076838  0.08621442  0.64453730     0.14700
F2111       F  0.39319423  0.06383557  0.60359817    -0.12600
F2112       F  0.34786259  0.14605428  0.65558569    -0.13100
F2113       F  0.38939031  0.14087824  0.59903768    -0.15400
F2114       F  0.35130900  0.06798919  0.65922643    -0.14000
F2115       F  0.40404663  0.02501625  0.65055400    -0.14000
F2116       F  0.34625381  0.94083455  0.61296592    -0.15400
C2117       C  0.23768633  0.41864336  0.64465767     0.14700
C2118       C  0.24436386  0.39095551  0.63128147     0.01600
C2119       C  0.23176633  0.38064912  0.61600922     0.16600
C2120       C  0.21270739  0.39650944  0.61441906     0.26000
C2121       C  0.20561703  0.42355112  0.62806809    -0.40300
C2122       C  0.21855083  0.43480298  0.64308096     0.33100
C2123       C  0.26449858  0.37303380  0.63285825     0.01700
F2124       F  0.23800293  0.35522853  0.60240154    -0.12600
F2125       F  0.21257951  0.46066102  0.65657921    -0.13100
C2126       C  0.26672163  0.33252110  0.63321599     0.16600
C2127       C  0.28570903  0.31558414  0.63294901     0.26000
C2128       C  0.30282661  0.33881369  0.63217682    -0.40200
C2129       C  0.30060544  0.37930397  0.63243271     0.49000
C2130       C  0.28167693  0.39620041  0.63281076     0.14700
F2131       F  0.25044520  0.30929255  0.63353316    -0.12600
F2132       F  0.31685352  0.40266122  0.63219617    -0.13100
F2133       F  0.28732312  0.27653468  0.63245516    -0.15400
F2134       F  0.28014962  0.43527832  0.63228615    -0.14000
F2135       F  0.24948257  0.42923562  0.65961943    -0.14000
F2136       F  0.20115678  0.38471290  0.59949527    -0.15400
C2137       C  0.35825207  0.70318045  0.97801311     0.14700
C2138       C  0.37664257  0.70845026  0.98726632     0.01600
C2139       C  0.39388477  0.71381615  0.97612922     0.16600
C2140       C  0.39274636  0.71365045  0.95601585     0.26000
C2141       C  0.37436271  0.70761142  0.94675945    -0.40300
C2142       C  0.35713421  0.70248433  0.95795808     0.33100
C2143       C  0.37766857  0.70810893  0.00853357     0.01700
F2144       F  0.41188296  0.71826302  0.98473659    -0.12600
F2145       F  0.33908483  0.69779957  0.94948436    -0.13100
C2146       C  0.37068991  0.67596865  0.01884032     0.16600
C2147       C  0.37032338  0.67640366  0.03893560     0.26000
C2148       C  0.37703279  0.70905369  0.04917643    -0.40200
C2149       C  0.38464898  0.74078955  0.03876438     0.33000
C2150       C  0.38488378  0.74031207  0.01863594     0.14700
F2151       F  0.36422188  0.64401476  0.00938584    -0.12600
F2152       F  0.39128586  0.77290045  0.04796966    -0.13100
F2153       F  0.36347676  0.64466422  0.04831265    -0.15400
F2154       F  0.39149007  0.77192630  0.00899235    -0.14000
F2155       F  0.34127541  0.69934114  0.98844672    -0.14000
F2156       F  0.40970396  0.71817220  0.94561753    -0.15400
C2157       C  0.25878603  0.67744766  0.87045937     0.14700
C2158       C  0.25631603  0.63696652  0.87082746     0.01600
C2159       C  0.27327557  0.61334106  0.87114978     0.16600
C2160       C  0.29225497  0.62965516  0.87153653     0.26000
C2161       C  0.29477443  0.67002149  0.87122526    -0.40300
C2162       C  0.27791420  0.69384691  0.87045163     0.33100
C2163       C  0.23618168  0.61910829  0.87047561     0.01700
F2164       F  0.27148883  0.57428862  0.87070889    -0.12600
F2165       F  0.27994467  0.73284346  0.87044478    -0.13100
C2166       C  0.22280366  0.62806295  0.85565295     0.16600
C2167       C  0.20396343  0.61096375  0.85503539     0.26000
C2168       C  0.19799370  0.58407825  0.86927314    -0.40200
C2169       C  0.21163114  0.57464573  0.88395078     0.33000
C2170       C  0.23046335  0.59206480  0.88457517     0.14700
F2171       F  0.22809240  0.65308990  0.84149260    -0.12600
F2172       F  0.20665418  0.54930783  0.89807049    -0.13100
F2173       F  0.19158524  0.62111757  0.84045160    -0.15400
F2174       F  0.24297427  0.58316643  0.89926003    -0.14000
F2175       F  0.24267945  0.70107622  0.87059600    -0.14000
F2176       F  0.30830611  0.60582347  0.87183296    -0.15400
C2177       C  0.38586527  0.70811201  0.76647826     0.14700
C2178       C  0.37326337  0.73536865  0.75788532     0.01600
C2179       C  0.35916543  0.75465650  0.76919046     0.16600
C2180       C  0.35761043  0.74703503  0.78887480     0.26000
C2181       C  0.37015161  0.71959048  0.79776276    -0.40300
C2182       C  0.38432520  0.70014432  0.78622100     0.33100
C2183       C  0.37429205  0.74361039  0.73703992     0.01700
F2184       F  0.34698645  0.78139933  0.76111023    -0.12600
F2185       F  0.39680763  0.67351592  0.79394594    -0.13100
C2186       C  0.35882708  0.73141295  0.72496333     0.16600
C2187       C  0.35846501  0.74235302  0.70561274     0.26000
C2188       C  0.37362849  0.76604550  0.69788538    -0.40200
C2189       C  0.38942273  0.77746463  0.71006188     0.33000
C2190       C  0.38972873  0.76622834  0.72944206     0.14700
F2191       F  0.34391944  0.70903021  0.73202657    -0.12600
F2192       F  0.40461946  0.79948512  0.70331140    -0.13100
F2193       F  0.34306206  0.72991556  0.69458142    -0.15400
F2194       F  0.40485180  0.77824529  0.74093833    -0.14000
F2195       F  0.39950793  0.68891902  0.75569348    -0.14000
F2196       F  0.34386373  0.76698208  0.79916579    -0.15400
C2197       C  0.34787427  0.21497415  0.97723832     0.14700
C2198       C  0.36558081  0.20906775  0.98758666     0.01600
C2199       C  0.38327369  0.20183419  0.97747431     0.16600
C2200       C  0.38331089  0.20034988  0.95736850     0.26000
C2201       C  0.36559575  0.20618932  0.94686190    -0.40300
C2202       C  0.34785873  0.21360970  0.95705955     0.33100
C2203       C  0.36569218  0.20990308  0.00893476     0.01700
F2204       F  0.40066356  0.19683973  0.98711301    -0.12600
F2205       F  0.33039279  0.21860100  0.94756672    -0.13100
C2206       C  0.37155343  0.17707668  0.01934717     0.16600
C2207       C  0.37238117  0.17799513  0.03945150     0.26000
C2208       C  0.36723383  0.21178553  0.04961012    -0.40200
C2209       C  0.36119978  0.24459019  0.03914914     0.33000
C2210       C  0.36049051  0.24365143  0.01898320     0.14700
F2211       F  0.37628721  0.14388315  0.01000384    -0.12600
F2212       F  0.35666163  0.27799339  0.04838285    -0.13100
F2213       F  0.37787469  0.14547238  0.04898376    -0.15400
F2214       F  0.35529834  0.27606524  0.00921802    -0.14000
F2215       F  0.33049858  0.22117486  0.98671966    -0.14000
F2216       F  0.40086673  0.19406273  0.94820751    -0.15400
C2217       C  0.36787967  0.99560421  0.85640073     0.14700
C2218       C  0.36743018  0.97691122  0.87431488     0.01600
C2219       C  0.37035652  0.99851676  0.89119561     0.16600
C2220       C  0.37374018  0.03824637  0.89020226     0.26000
C2221       C  0.37408020  0.05716904  0.87227196    -0.40300
C2222       C  0.37109526  0.03539908  0.85536702     0.33100
C2223       C  0.36540655  0.93450088  0.87532376     0.01700
F2224       F  0.36963104  0.98113170  0.90870219    -0.12600
F2225       F  0.37144883  0.05254137  0.83778917    -0.13100
C2226       C  0.38076383  0.91274682  0.88351659     0.16600
C2227       C  0.37974939  0.87263473  0.88375914     0.26000
C2228       C  0.36331735  0.85305808  0.87556279    -0.40200
C2229       C  0.34766185  0.87507974  0.86770171     0.33000
C2230       C  0.34871673  0.91550736  0.86761089     0.14700
F2231       F  0.39723372  0.93039808  0.89068580    -0.12600
F2232       F  0.33139672  0.85766981  0.86000958    -0.13100
F2233       F  0.39533637  0.85317974  0.89153703    -0.15400
F2234       F  0.33345865  0.93615210  0.86000130    -0.14000
F2235       F  0.36565101  0.97514313  0.83986330    -0.14000
F2236       F  0.37585701  0.05835829  0.90685849    -0.15400
C2237       C  0.35772901  0.49739239  0.88776460     0.14700
C2238       C  0.36365838  0.47544564  0.87188540     0.01600
C2239       C  0.37261632  0.49376890  0.85605648     0.16600
C2240       C  0.37566402  0.53373201  0.85611946     0.26000
C2241       C  0.36986566  0.55603723  0.87213610    -0.40300
C2242       C  0.36084083  0.53718363  0.88798447     0.33100
C2243       C  0.36258338  0.43301507  0.87278471     0.01700
F2244       F  0.37847192  0.47278215  0.84054576    -0.12600
F2245       F  0.35512639  0.55699777  0.90392344    -0.13100
C2246       C  0.34424401  0.41344121  0.87371243     0.16600
C2247       C  0.34376895  0.37296521  0.87460149     0.26000
C2248       C  0.36166125  0.35191919  0.87455820    -0.40200
C2249       C  0.37991933  0.37198037  0.87437879     0.33000
C2250       C  0.38033793  0.41202013  0.87344060     0.14700
F2251       F  0.32689310  0.43348314  0.87332691    -0.12600
F2252       F  0.39751582  0.35278454  0.87535961    -0.13100
F2253       F  0.32595487  0.35445708  0.87482254    -0.15400
F2254       F  0.39817932  0.43047968  0.87344772    -0.14000
F2255       F  0.34952426  0.48002743  0.90339872    -0.14000
F2256       F  0.38409779  0.55042943  0.84043256    -0.15400
C2257       C  0.27404086  0.11536527  0.85467686     0.14700
C2258       C  0.25794937  0.13380851  0.86348097     0.01600
C2259       C  0.26085522  0.16936028  0.87278742     0.16600
C2260       C  0.27987792  0.18597603  0.87363181     0.26000
C2261       C  0.29622219  0.16729438  0.86499078    -0.40300
C2262       C  0.29297228  0.13180386  0.85537636     0.33100
C2263       C  0.23811628  0.11571074  0.86285115     0.01700
F2264       F  0.24526357  0.18776439  0.88115666    -0.12600
F2265       F  0.30820835  0.11206994  0.84712099    -0.13100
C2266       C  0.23254499  0.08851896  0.87680914     0.16600
C2267       C  0.21357582  0.07174148  0.87636362     0.26000
C2268       C  0.19986624  0.08191336  0.86185641    -0.40200
C2269       C  0.20604436  0.10806478  0.84735205     0.33000
C2270       C  0.22494899  0.12479698  0.84795006     0.14700
F2271       F  0.24544064  0.07865207  0.89101520    -0.12600
F2272       F  0.19378408  0.11797253  0.83262606    -0.13100
F2273       F  0.20854878  0.04635377  0.89043615    -0.15400
F2274       F  0.23039858  0.15016003  0.83399456    -0.14000
F2275       F  0.27142094  0.08107079  0.84553359    -0.14000
F2276       F  0.28224313  0.22026496  0.88281945    -0.15400
C2277       C  0.36481190  0.21859396  0.76606306     0.14700
C2278       C  0.38259936  0.23320237  0.75826736     0.01600
C2279       C  0.39914854  0.23840214  0.77035186     0.16600
C2280       C  0.39765407  0.23080117  0.79008353     0.26000
C2281       C  0.37963754  0.21740723  0.79800093    -0.40300
C2282       C  0.36336617  0.21057184  0.78572557     0.33100
C2283       C  0.38339729  0.24474809  0.73775000     0.01700
F2284       F  0.41673692  0.25094429  0.76302922    -0.12600
F2285       F  0.34568617  0.19815187  0.79290184    -0.13100
C2286       C  0.38752955  0.28325289  0.73262814     0.16600
C2287       C  0.38645370  0.29501454  0.71335729     0.26000
C2288       C  0.38091024  0.26855620  0.69899098    -0.40200
C2289       C  0.37741557  0.22976640  0.70409117     0.33000
C2290       C  0.37875715  0.21795828  0.72326550     0.14700
F2291       F  0.39178067  0.30981965  0.74640188    -0.12600
F2292       F  0.37297614  0.20305871  0.69042317    -0.13100
F2293       F  0.38996085  0.33254979  0.70887296    -0.15400
F2294       F  0.37548052  0.18030241  0.72772153    -0.14000
F2295       F  0.34851049  0.21376831  0.75476311    -0.14000
F2296       F  0.41384167  0.23641890  0.80144430    -0.15400
C2297       C  0.61709121  0.73686523  0.51550513     0.14700
C2298       C  0.62882591  0.71100080  0.50495019     0.01600
C2299       C  0.64045064  0.68367779  0.51464397     0.16600
C2300       C  0.64045865  0.68223751  0.53474081     0.26000
C2301       C  0.62884536  0.70842728  0.54556964    -0.40300
C2302       C  0.61712055  0.73577602  0.53562392     0.33100
C2303       C  0.62900440  0.71252874  0.48376353     0.01700
F2304       F  0.65165802  0.65805886  0.50457383    -0.12600
F2305       F  0.60562932  0.76156598  0.54526189    -0.13100
C2306       C  0.64589934  0.72592907  0.47398913     0.16600
C2307       C  0.64619429  0.72710661  0.45387950     0.26000
C2308       C  0.62955193  0.71454947  0.44317516    -0.40200
C2309       C  0.61260288  0.70109462  0.45318420     0.33000
C2310       C  0.61236314  0.70024615  0.47328227     0.14700
F2311       F  0.66209024  0.73811180  0.48398709    -0.12600
F2312       F  0.59613552  0.68890967  0.44361427    -0.13100
F2313       F  0.66290291  0.74005220  0.44497563    -0.15400
F2314       F  0.59595608  0.68687762  0.48255665    -0.14000
F2315       F  0.60578487  0.76355270  0.50627530    -0.14000
F2316       F  0.65192999  0.65517416  0.54348641    -0.15400
C2317       C  0.72687975  0.61080498  0.61713375     0.14700
C2318       C  0.74249124  0.63129478  0.62582039     0.01600
C2319       C  0.73923104  0.66973782  0.63164814     0.16600
C2320       C  0.72049876  0.68695172  0.62928981     0.26000
C2321       C  0.70477688  0.66622165  0.62073198    -0.40300
C2322       C  0.70837124  0.62807655  0.61440516     0.33100
C2323       C  0.76194567  0.61201899  0.62904504     0.01700
F2324       F  0.75421448  0.69069173  0.63958331    -0.12600
F2325       F  0.69371768  0.60645461  0.60631802    -0.13100
C2326       C  0.77185625  0.59362991  0.61373687     0.16600
C2327       C  0.78996427  0.57474057  0.61680374     0.26000
C2328       C  0.79880471  0.57461690  0.63518353    -0.40200
C2329       C  0.78875344  0.59266527  0.65053977     0.33000
C2330       C  0.77043144  0.61083718  0.64753060     0.14700
F2331       F  0.76432275  0.59506687  0.59561129    -0.12600
F2332       F  0.79667894  0.59281243  0.66851783    -0.13100
F2333       F  0.79933470  0.55842473  0.60151407    -0.15400
F2334       F  0.76088216  0.62699216  0.66275581    -0.14000
F2335       F  0.72927591  0.57328078  0.61195024    -0.14000
F2336       F  0.71778937  0.72380364  0.63540809    -0.15400
C2337       C  0.48337452  0.77861092  0.64513259     0.14700
C2338       C  0.49353086  0.76878908  0.62814410     0.01600
C2339       C  0.48319330  0.76880531  0.61059528     0.16600
C2340       C  0.46284692  0.77691207  0.61006871     0.26000
C2341       C  0.45239187  0.78555679  0.62710705    -0.40300
C2342       C  0.46296995  0.78719401  0.64462352     0.33100
C2343       C  0.51483418  0.75785667  0.62843510     0.01700
F2344       F  0.49274351  0.75975478  0.59396861    -0.12600
F2345       F  0.45342667  0.79533686  0.66136619    -0.13100
C2346       C  0.52105566  0.72326352  0.63712362     0.16600
C2347       C  0.54089893  0.71101150  0.63555651     0.26000
C2348       C  0.55487635  0.73323311  0.62522678    -0.40200
C2349       C  0.54854125  0.76855670  0.61702343     0.33000
C2350       C  0.52878239  0.78056474  0.61861579     0.14700
F2351       F  0.50773543  0.70071419  0.64659031    -0.12600
F2352       F  0.56146704  0.79203561  0.60758029    -0.13100
F2353       F  0.54626266  0.67705546  0.64380275    -0.15400
F2354       F  0.52320527  0.81454509  0.61048998    -0.14000
F2355       F  0.49320320  0.77963587  0.66219937    -0.14000
F2356       F  0.45333492  0.77600529  0.59283041    -0.15400
C2357       C  0.61266019  0.20661835  0.47882654     0.14700
C2358       C  0.63081300  0.21153126  0.48862654     0.01600
C2359       C  0.64822775  0.21772376  0.47783527     0.16600
C2360       C  0.64756950  0.21865732  0.45768934     0.26000
C2361       C  0.62946258  0.21302393  0.44779952    -0.40300
C2362       C  0.61198653  0.20715924  0.45865797     0.33100
C2363       C  0.63165387  0.20952447  0.51004256     0.01700
F2364       F  0.66605668  0.22179476  0.48680229    -0.12600
F2365       F  0.59411907  0.20265846  0.44980777    -0.13100
C2366       C  0.62444862  0.17681266  0.51981319     0.16600
C2367       C  0.62513932  0.17482454  0.53995094     0.26000
C2368       C  0.63328054  0.20537845  0.55082251    -0.40200
C2369       C  0.64075270  0.23791217  0.54097681     0.33000
C2370       C  0.63982110  0.24004095  0.52083744     0.14700
F2371       F  0.61706624  0.14632689  0.50979983    -0.12600
F2372       F  0.64840398  0.26832614  0.55084809    -0.13100
F2373       F  0.61819044  0.14253164  0.54876649    -0.15400
F2374       F  0.64646322  0.27243959  0.51189225    -0.14000
F2375       F  0.59546538  0.20187600  0.48882173    -0.14000
F2376       F  0.66483772  0.22400082  0.44788864    -0.15400
C2377       C  0.61335300  0.90924920  0.62583155     0.14700
C2378       C  0.63004143  0.93272252  0.62873417     0.01600
C2379       C  0.64899268  0.91576941  0.63026227     0.16600
C2380       C  0.65125649  0.87571818  0.62830425     0.26000
C2381       C  0.63457074  0.85230157  0.62467951    -0.40300
C2382       C  0.61554935  0.86949699  0.62382053     0.33100
C2383       C  0.62761752  0.97502074  0.62925470     0.01700
F2384       F  0.66532807  0.93816268  0.63305750    -0.12600
F2385       F  0.59890441  0.84773092  0.62141647    -0.13100
C2386       C  0.63213925  0.99591472  0.64595466     0.16600
C2387       C  0.63034392  0.03610408  0.64613758     0.26000
C2388       C  0.62409794  0.05617956  0.62948303    -0.40200
C2389       C  0.61883044  0.03474192  0.61299336     0.33000
C2390       C  0.62058799  0.99457162  0.61292563     0.14700
F2391       F  0.63823233  0.97732325  0.66211963    -0.12600
F2392       F  0.61265906  0.05254120  0.59664154    -0.13100
F2393       F  0.63491133  0.05523875  0.66262062    -0.15400
F2394       F  0.61600956  0.97472972  0.59665315    -0.14000
F2395       F  0.59484859  0.92492910  0.62502835    -0.14000
F2396       F  0.66974171  0.86008656  0.62933621    -0.15400
C2397       C  0.61566562  0.41045616  0.61891495     0.14700
C2398       C  0.63267530  0.43356443  0.62070679     0.01600
C2399       C  0.65152555  0.41594207  0.62165599     0.16600
C2400       C  0.65323558  0.37551372  0.62111462     0.26000
C2401       C  0.63606236  0.35238982  0.61989949    -0.40300
C2402       C  0.61731161  0.37039142  0.61848506     0.33100
C2403       C  0.63040076  0.47602639  0.62127854     0.01700
F2404       F  0.66820272  0.43788339  0.62312414    -0.12600
F2405       F  0.60042775  0.34907971  0.61672446    -0.13100
C2406       C  0.63470279  0.49691439  0.63812377     0.16600
C2407       C  0.63147208  0.53689188  0.63879961     0.26000
C2408       C  0.62411551  0.55646839  0.62256005    -0.40200
C2409       C  0.61983603  0.53545834  0.60575079     0.33000
C2410       C  0.62274807  0.49553985  0.60518769     0.14700
F2411       F  0.64197393  0.47855493  0.65388916    -0.12600
F2412       F  0.61299668  0.55375935  0.58978659    -0.13100
F2413       F  0.63649963  0.55676501  0.65493220    -0.15400
F2414       F  0.61842566  0.47589647  0.58879241    -0.14000
F2415       F  0.59732142  0.42679195  0.61802527    -0.14000
F2416       F  0.67150250  0.35905314  0.62254464    -0.15400
C2417       C  0.74028159  0.16548571  0.62027673     0.14700
C2418       C  0.74269136  0.12815905  0.62795893     0.01600
C2419       C  0.72633994  0.10946524  0.63625412     0.16600
C2420       C  0.70779736  0.12728886  0.63663455     0.26000
C2421       C  0.70504793  0.16439022  0.62851894    -0.40300
C2422       C  0.72157465  0.18342927  0.62045741     0.33100
C2423       C  0.76203886  0.10797049  0.62687351     0.01700
F2424       F  0.72814053  0.07313223  0.64341009    -0.12600
F2425       F  0.71971008  0.21937565  0.61289595    -0.13100
C2426       C  0.77120565  0.09383925  0.64365814     0.16600
C2427       C  0.78953479  0.07494241  0.64257823     0.26000
C2428       C  0.79912500  0.07050625  0.62473524    -0.40200
C2429       C  0.78963991  0.08348940  0.60789903     0.33000
C2430       C  0.77116342  0.10177460  0.60895176     0.14700
F2431       F  0.76278805  0.09972162  0.66118718    -0.12600
F2432       F  0.79839960  0.07883968  0.59043453    -0.13100
F2433       F  0.79851345  0.06335982  0.65911027    -0.15400
F2434       F  0.76214958  0.11344275  0.59245989    -0.14000
F2435       F  0.75609714  0.18460406  0.61270434    -0.14000
F2436       F  0.69237643  0.10721269  0.64437822    -0.15400
C2437       C  0.47753240  0.21605287  0.62313514     0.14700
C2438       C  0.49242244  0.24373145  0.62635270     0.01600
C2439       C  0.48693469  0.28250585  0.62934329     0.16600
C2440       C  0.46686727  0.29336871  0.62923087     0.26000
C2441       C  0.45197008  0.26574216  0.62578736    -0.40300
C2442       C  0.45752154  0.22694666  0.62273088     0.33100
C2443       C  0.51367409  0.23231117  0.62667671     0.01700
F2444       F  0.50107720  0.31000753  0.63201226    -0.12600
F2445       F  0.44351049  0.19921171  0.61995271    -0.13100
C2446       C  0.52244080  0.21403182  0.61070123     0.16600
C2447       C  0.54284675  0.20584950  0.61056223     0.26000
C2448       C  0.55487237  0.21612133  0.62635561    -0.40200
C2449       C  0.54580893  0.23278506  0.64269031     0.33000
C2450       C  0.52543976  0.24064649  0.64283545     0.14700
F2451       F  0.51140163  0.20557157  0.59488644    -0.12600
F2452       F  0.55665025  0.24168790  0.65858309    -0.13100
F2453       F  0.55092837  0.18953484  0.59460192    -0.15400
F2454       F  0.51717413  0.25658256  0.65880967    -0.14000
F2455       F  0.48233901  0.17824636  0.62084361    -0.14000
F2456       F  0.46205556  0.33102873  0.63197083    -0.15400
C2457       C  0.62022896  0.82330031  0.01451163     0.14700
C2458       C  0.61818778  0.78757417  0.00512147     0.01600
C2459       C  0.61734817  0.75357334  0.01609956     0.16600
C2460       C  0.61898216  0.75523577  0.03615663     0.26000
C2461       C  0.62170598  0.79096274  0.04553688    -0.40300
C2462       C  0.62215064  0.82498949  0.03449683     0.33100
C2463       C  0.61839498  0.78593249  0.98385031     0.01700
F2464       F  0.61575308  0.71863781  0.00735442    -0.12600
F2465       F  0.62417106  0.86003107  0.04304430    -0.13100
C2466       C  0.63452332  0.80194337  0.97380740     0.16600
C2467       C  0.63482815  0.80190972  0.95377216     0.26000
C2468       C  0.61909079  0.78528939  0.94324180    -0.40200
C2469       C  0.60305925  0.76845711  0.95332281     0.33000
C2470       C  0.60270389  0.76891240  0.97349081     0.14700
F2471       F  0.65023233  0.81721415  0.98347308    -0.12600
F2472       F  0.58750439  0.75243912  0.94372461    -0.13100
F2473       F  0.65082036  0.81760361  0.94472838    -0.15400
F2474       F  0.58683990  0.75356012  0.98288454    -0.14000
F2475       F  0.62042654  0.85666763  0.00424690    -0.14000
F2476       F  0.61867728  0.72172985  0.04630532    -0.15400
C2477       C  0.73436016  0.82624317  0.86903619     0.14700
C2478       C  0.73562489  0.86634012  0.87234146     0.01600
C2479       C  0.71812303  0.88731119  0.87547168     0.16600
C2480       C  0.69966706  0.86886668  0.87520956     0.26000
C2481       C  0.69818067  0.82874365  0.87175755    -0.40300
C2482       C  0.71574698  0.80760004  0.86855833     0.33100
C2483       C  0.75512375  0.88650121  0.87312724     0.01700
F2484       F  0.71893071  0.92577768  0.87918232    -0.12600
F2485       F  0.71495851  0.76892632  0.86547441    -0.13100
C2486       C  0.75997712  0.91541868  0.85969110     0.16600
C2487       C  0.77837695  0.93467039  0.86061298     0.26000
C2488       C  0.79223522  0.92561150  0.87517714    -0.40200
C2489       C  0.78679521  0.89750684  0.88906670     0.33000
C2490       C  0.76856458  0.87817075  0.88793887     0.14700
F2491       F  0.74700067  0.92443885  0.84540964    -0.12600
F2492       F  0.79915869  0.88816603  0.90380849    -0.13100
F2493       F  0.78273047  0.96142124  0.84697385    -0.15400
F2494       F  0.76390052  0.85151738  0.90155603    -0.14000
F2495       F  0.75115599  0.80524311  0.86620469    -0.14000
F2496       F  0.68313575  0.89070481  0.87803982    -0.15400
C2497       C  0.47495302  0.75710549  0.87719818     0.14700
C2498       C  0.48639144  0.73913202  0.86296091     0.01600
C2499       C  0.47757561  0.71149611  0.85089036     0.16600
C2500       C  0.45733670  0.70255022  0.85273265     0.26000
C2501       C  0.44563671  0.72091181  0.86689097    -0.40300
C2502       C  0.45483726  0.74807735  0.87924042     0.33100
C2503       C  0.50784497  0.74756664  0.86162791     0.01700
F2504       F  0.48859035  0.69342570  0.83720904    -0.12600
F2505       F  0.44448745  0.76597644  0.89346660    -0.13100
C2506       C  0.52154591  0.71990333  0.86786809     0.16600
C2507       C  0.54182921  0.72822386  0.86793324     0.26000
C2508       C  0.54887616  0.76464422  0.86177804    -0.40200
C2509       C  0.53508417  0.79210378  0.85506309     0.33000
C2510       C  0.51466495  0.78367030  0.85515040     0.14700
F2511       F  0.51518497  0.68512547  0.87449906    -0.12600
F2512       F  0.54124149  0.82745077  0.84907470    -0.13100
F2513       F  0.55456968  0.70039009  0.87406616    -0.15400
F2514       F  0.50149680  0.81081722  0.84913500    -0.14000
F2515       F  0.48341994  0.78290414  0.88944324    -0.14000
F2516       F  0.44923088  0.67638203  0.84047393    -0.15400
C2517       C  0.64910290  0.72482227  0.72562014     0.14700
C2518       C  0.63115073  0.73537876  0.73458989     0.01600
C2519       C  0.61359131  0.73658855  0.72363468     0.16600
C2520       C  0.61396397  0.72747134  0.70401523     0.26000
C2521       C  0.63197045  0.71756997  0.69494383    -0.40300
C2522       C  0.64955296  0.71637287  0.70590454     0.33100
C2523       C  0.63073630  0.74515830  0.75536077     0.01700
F2524       F  0.59605891  0.74656874  0.73197293    -0.12600
F2525       F  0.66712751  0.70671807  0.69754808    -0.13100
C2526       C  0.62531011  0.78238583  0.76147896     0.16600
C2527       C  0.62483934  0.79150794  0.78112967     0.26000
C2528       C  0.62995578  0.76359050  0.79500456    -0.40200
C2529       C  0.63532463  0.72627426  0.78879116     0.33000
C2530       C  0.63566755  0.71717755  0.76916865     0.14700
F2531       F  0.62078640  0.81009537  0.74836919    -0.12600
F2532       F  0.63958256  0.69811388  0.80174735    -0.13100
F2533       F  0.61981005  0.82787912  0.78654922    -0.15400
F2534       F  0.64035471  0.68069441  0.76363469    -0.14000
F2535       F  0.66627278  0.72353761  0.73589834    -0.14000
F2536       F  0.59685091  0.72990284  0.69369229    -0.15400
C2537       C  0.61728616  0.30038874  0.98022727     0.14700
C2538       C  0.63338946  0.28275230  0.98967034     0.01600
C2539       C  0.64795400  0.26384332  0.97865418     0.16600
C2540       C  0.64661168  0.26306323  0.95854320     0.26000
C2541       C  0.63071949  0.28159101  0.94896998    -0.40300
C2542       C  0.61600824  0.30007508  0.96015031     0.33100
C2543       C  0.63504413  0.28491455  0.01095980     0.01700
F2544       F  0.66385849  0.24709564  0.98733564    -0.12600
F2545       F  0.60023757  0.31784501  0.95174881    -0.13100
C2546       C  0.63675527  0.25119008  0.02216035     0.16600
C2547       C  0.63715264  0.25350574  0.04229815     0.26000
C2548       C  0.63540672  0.28947281  0.05150922    -0.40200
C2549       C  0.63415793  0.32317422  0.04031900     0.33000
C2550       C  0.63424600  0.32096225  0.02025201     0.14700
F2551       F  0.63715550  0.21591735  0.01364248    -0.12600
F2552       F  0.63293114  0.35837066  0.04886092    -0.13100
F2553       F  0.63812656  0.22049174  0.05279260    -0.15400
F2554       F  0.63349870  0.35413320  0.00985668    -0.14000
F2555       F  0.60261376  0.31776875  0.99050484    -0.14000
F2556       F  0.66121176  0.24494583  0.94850443    -0.15400
C2557       C  0.62600926  0.49360765  0.89048629     0.14700
C2558       C  0.62888402  0.51392508  0.87323599     0.01600
C2559       C  0.62889261  0.49394463  0.85569555     0.16600
C2560       C  0.62616085  0.45396704  0.85537624     0.26000
C2561       C  0.62337637  0.43331987  0.87266222    -0.40300
C2562       C  0.62327936  0.45361890  0.89023697     0.33100
C2563       C  0.63014660  0.55636307  0.87341964     0.01700
F2564       F  0.63111637  0.51334414  0.83884611    -0.12600
F2565       F  0.62131413  0.43468232  0.90724621    -0.13100
C2566       C  0.64770473  0.57562759  0.86810354     0.16600
C2567       C  0.64835831  0.61608017  0.86784171     0.26000
C2568       C  0.63137113  0.63774809  0.87282331    -0.40200
C2569       C  0.61379453  0.61786405  0.87811899     0.33000
C2570       C  0.61328802  0.57771092  0.87845087     0.14700
F2571       F  0.66421246  0.55522107  0.86329199    -0.12600
F2572       F  0.59675654  0.63703092  0.88250389    -0.13100
F2573       F  0.66558548  0.63388061  0.86278617    -0.15400
F2574       F  0.59606016  0.55949086  0.88319470    -0.14000
F2575       F  0.62609199  0.51256875  0.90759853    -0.14000
F2576       F  0.62604443  0.43553923  0.83812155    -0.15400
C2577       C  0.62919127  0.99309138  0.84986126     0.14700
C2578       C  0.62628092  0.01377495  0.86711143     0.01600
C2579       C  0.61945521  0.99399080  0.88349056     0.16600
C2580       C  0.61623923  0.95421371  0.88284047     0.26000
C2581       C  0.61920613  0.93351188  0.86565308    -0.40300
C2582       C  0.62544304  0.95335136  0.84908149     0.33100
C2583       C  0.62951052  0.05613674  0.86788226     0.01700
F2584       F  0.61572188  0.01322641  0.90013643    -0.12600
F2585       F  0.62912478  0.93391613  0.83248356    -0.13100
C2586       C  0.61998727  0.08007018  0.85447418     0.16600
C2587       C  0.62180624  0.12002078  0.85572020     0.26000
C2588       C  0.63271720  0.13728565  0.87082517    -0.40200
C2589       C  0.64273995  0.11336851  0.88398252     0.33000
C2590       C  0.64126630  0.07309287  0.88243026     0.14700
F2591       F  0.60814285  0.06487138  0.84055767    -0.12600
F2592       F  0.65330456  0.12882809  0.89875119    -0.13100
F2593       F  0.61254777  0.14179859  0.84214887    -0.15400
F2594       F  0.65115204  0.05065080  0.89527702    -0.14000
F2595       F  0.63633272  0.01112356  0.83393460    -0.14000
F2596       F  0.61036857  0.93575622  0.89913141    -0.15400
C2597       C  0.76028351  0.41787160  0.87409852     0.14700
C2598       C  0.75752752  0.38096956  0.88220362     0.01600
C2599       C  0.77327697  0.36396207  0.89235342     0.16600
C2600       C  0.79138563  0.38328191  0.89446519     0.26000
C2601       C  0.79436086  0.42027507  0.88632111    -0.40300
C2602       C  0.77854303  0.43729572  0.87605266     0.33100
C2603       C  0.73834911  0.35988228  0.88012585     0.01700
F2604       F  0.77133996  0.32787322  0.89977122    -0.12600
F2605       F  0.78066091  0.47274226  0.86797709    -0.13100
C2606       C  0.73047832  0.35192148  0.86179731     0.16600
C2607       C  0.71226348  0.33259885  0.85991866     0.26000
C2608       C  0.70172316  0.32024494  0.87632457    -0.40200
C2609       C  0.70990921  0.32710188  0.89463647     0.33000
C2610       C  0.72797071  0.34696062  0.89651859     0.14700
F2611       F  0.74049190  0.36269541  0.84569138    -0.12600
F2612       F  0.69981725  0.31676840  0.91077161    -0.13100
F2613       F  0.70485051  0.32609051  0.84202467    -0.15400
F2614       F  0.73495889  0.35491020  0.91442556    -0.14000
F2615       F  0.74519183  0.43532457  0.86446143    -0.14000
F2616       F  0.80625796  0.36476401  0.90394507    -0.15400
C2617       C  0.48029839  0.20813917  0.88741839     0.14700
C2618       C  0.48724829  0.24568106  0.88371430     0.01600
C2619       C  0.47358125  0.27496583  0.87945139     0.16600
C2620       C  0.45326313  0.26668582  0.87827612     0.26000
C2621       C  0.44618384  0.22879441  0.88143884    -0.40300
C2622       C  0.45990590  0.19977527  0.88645604     0.33100
C2623       C  0.50882154  0.25371289  0.88256078     0.01700
F2624       F  0.48002454  0.31137548  0.87571762    -0.12600
F2625       F  0.45372497  0.16300555  0.88964784    -0.13100
C2626       C  0.51957227  0.24106860  0.86649087     0.16600
C2627       C  0.53983915  0.24933683  0.86476173     0.26000
C2628       C  0.54991974  0.27038699  0.87921961    -0.40200
C2629       C  0.53895351  0.28327483  0.89533541     0.33000
C2630       C  0.51855306  0.27511256  0.89691070     0.14700
F2631       F  0.51029628  0.22106479  0.85226471    -0.12600
F2632       F  0.54798560  0.30294161  0.90980897    -0.13100
F2633       F  0.54949697  0.23680070  0.84877199    -0.15400
F2634       F  0.50832571  0.28759463  0.91257508    -0.14000
F2635       F  0.49334796  0.17943219  0.89157936    -0.14000
F2636       F  0.44054096  0.29588146  0.87395022    -0.15400
C2637       C  0.62832522  0.21948457  0.77408670     0.14700
C2638       C  0.63294031  0.24883148  0.76091032     0.01600
C2639       C  0.63621342  0.28656778  0.76761023     0.16600
C2640       C  0.63453539  0.29506294  0.78722100     0.26000
C2641       C  0.62929233  0.26597040  0.80041544    -0.40300
C2642       C  0.62641412  0.22796906  0.79366980     0.33100
C2643       C  0.63291345  0.24074529  0.74004621     0.01700
F2644       F  0.64091205  0.31523699  0.75507667    -0.12600
F2645       F  0.62205797  0.19883569  0.80606311    -0.13100
C2646       C  0.61837772  0.25775845  0.72834221     0.16600
C2647       C  0.61790466  0.25023026  0.70862452     0.26000
C2648       C  0.63203984  0.22540618  0.70014879    -0.40200
C2649       C  0.64663275  0.20824819  0.71199588     0.33000
C2650       C  0.64700512  0.21582714  0.73180013     0.14700
F2651       F  0.60432271  0.28116905  0.73614437    -0.12600
F2652       F  0.66078187  0.18474168  0.70442754    -0.13100
F2653       F  0.60329803  0.26677332  0.69794398    -0.15400
F2654       F  0.66130396  0.19934655  0.74289246    -0.14000
F2655       F  0.62514903  0.18279523  0.76790185    -0.14000
F2656       F  0.63748414  0.33194104  0.79320739    -0.15400
loop_ 
_geom_bond_atom_site_label_1 
_geom_bond_atom_site_label_2 
_geom_bond_distance 
_geom_bond_site_symmetry_2 
_ccdc_geom_bond_type 
Zn1           O5   1.927       .  S
Zn1           O6   2.003       .  S
Zn1          O10   1.997       .  S
Zn1          O17   1.958       .  S
Zn2           O5   1.946       .  S
Zn2           O7   1.992       .  S
Zn2           O9   2.014       .  S
Zn2          O13   1.994       .  S
Zn3           O5   1.958       .  S
Zn3           O8   2.051       .  S
Zn3          O11   2.029       .  S
Zn3          O14   2.019       .  S
Zn4           O5   1.970       .  S
Zn4          O12   2.021       .  S
Zn4          O15   2.047       .  S
Zn4          O16   2.057       .  S
O6           C18   1.271       .  A
O7           C19   1.272       .  A
O8           C20   1.277       .  A
O9           C18   1.272       .  A
O10          C20   1.271       .  A
O11          C19   1.277       .  A
O12          C21   1.275       .  A
O13          C22   1.270       .  A
O14          C21   1.275       .  A
O15          C22   1.277       .  A
O16          C23   1.279       .  A
O17          C23   1.268       .  A
C18        C2641   1.479       .  S
C19        C2561   1.478       .  S
C20        C2628   1.492       .  S
C21        C2541   1.490       .  S
C22        C2608   1.480       .  S
C23        C2588   1.482       .  S
Zn24         O28   1.919       .  S
Zn24         O29   1.969       .  S
Zn24         O33   1.969       .  S
Zn24         O40   1.989       .  S
Zn25         O28   1.974       .  S
Zn25         O30   2.033       .  S
Zn25         O32   2.050       .  S
Zn25         O36   2.059       .  S
Zn26         O28   1.974       .  S
Zn26         O31   2.076       .  S
Zn26         O34   2.023       .  S
Zn26         O37   2.050       .  S
Zn27         O28   1.932       .  S
Zn27         O35   1.965       .  S
Zn27         O38   1.968       .  S
Zn27         O39   2.015       .  S
O29          C41   1.269       .  A
O30          C42   1.276       .  A
O31          C43   1.280       .  A
O32          C41   1.278       .  A
O33          C43   1.268       .  A
O34          C42   1.275       .  A
O35          C44   1.268       .  A
O36          C45   1.278       .  A
O37          C44   1.278       .  A
O38          C45   1.269       .  A
O39          C46   1.270       .  A
O40          C46   1.269       .  A
C41        C2581   1.473       .  S
C42        C2528   1.484       .  S
C43        C2481   1.487       .  S
C44        C2568   1.485       .  S
C45        C2508   1.483       .  S
C46        C2468   1.481       .  S
Zn47         O51   1.922       .  S
Zn47         O52   1.967       .  S
Zn47         O56   2.002       .  S
Zn47         O63   1.986       .  S
Zn48         O51   1.980       .  S
Zn48         O53   2.066       .  S
Zn48         O55   2.065       .  S
Zn48         O59   2.043       .  S
Zn49         O51   1.936       .  S
Zn49         O54   2.012       .  S
Zn49         O57   1.958       .  S
Zn49         O60   1.991       .  S
Zn50         O51   1.960       .  S
Zn50         O58   2.026       .  S
Zn50         O61   2.028       .  S
Zn50         O62   2.037       .  S
O52          C64   1.270       .  A
O53          C65   1.280       .  A
O54          C66   1.270       .  A
O55          C64   1.279       .  A
O56          C66   1.270       .  A
O57          C65   1.268       .  A
O58          C67   1.275       .  A
O59          C68   1.277       .  A
O60          C67   1.271       .  A
O61          C68   1.276       .  A
O62          C69   1.276       .  A
O63          C69   1.270       .  A
C64        C2401   1.479       .  S
C65        C2421   1.485       .  S
C66        C2648   1.484       .  S
C67        C2388   1.485       .  S
C68        C2368   1.491       .  S
C69        C2448   1.483       .  S
Zn70         O74   1.933       .  S
Zn70         O75   2.015       .  S
Zn70         O79   1.970       .  S
Zn70         O86   1.983       .  S
Zn71         O74   1.934       .  S
Zn71         O76   1.982       .  S
Zn71         O78   2.006       .  S
Zn71         O82   1.985       .  S
Zn72         O74   1.978       .  S
Zn72         O77   2.044       .  S
Zn72         O80   2.044       .  S
Zn72         O83   2.017       .  S
Zn73         O74   1.970       .  S
Zn73         O81   2.023       .  S
Zn73         O84   2.056       .  S
Zn73         O85   2.055       .  S
O75          C87   1.272       .  A
O76          C88   1.270       .  A
O77          C89   1.276       .  A
O78          C87   1.271       .  A
O79          C89   1.269       .  A
O80          C88   1.277       .  A
O81          C90   1.274       .  A
O82          C91   1.270       .  A
O83          C90   1.273       .  A
O84          C91   1.279       .  A
O85          C92   1.278       .  A
O86          C92   1.270       .  A
C87        C2301   1.488       .  S
C88        C2321   1.487       .  S
C89        C2381   1.478       .  S
C90        C2521   1.477       .  S
C91        C2408   1.474       .  S
C92        C2348   1.491       .  S
Zn93         O97   1.940       .  S
Zn93         O98   1.977       .  S
Zn93        O102   1.987       .  S
Zn93        O109   2.012       .  S
Zn94         O97   1.984       .  S
Zn94         O99   2.040       .  S
Zn94        O101   2.052       .  S
Zn94        O105   2.050       .  S
Zn95         O97   1.957       .  S
Zn95        O100   2.022       .  S
Zn95        O103   2.009       .  S
Zn95        O106   2.044       .  S
Zn96         O97   1.928       .  S
Zn96        O104   1.988       .  S
Zn96        O107   1.960       .  S
Zn96        O108   2.009       .  S
O98         C110   1.269       .  A
O99         C111   1.276       .  A
O100        C112   1.275       .  A
O101        C110   1.278       .  A
O102        C112   1.271       .  A
O103        C111   1.273       .  A
O104        C113   1.270       .  A
O105        C114   1.277       .  A
O106        C113   1.276       .  A
O107        C114   1.269       .  A
O108        C115   1.271       .  A
O109        C115   1.271       .  A
C110       C2261   1.487       .  S
C111       C2201   1.488       .  S
C112       C2221   1.478       .  S
C113       C2621   1.485       .  S
C114       C2248   1.475       .  S
C115       C2281   1.478       .  S
Zn116       O120   1.971       .  S
Zn116       O121   2.044       .  S
Zn116       O125   2.025       .  S
Zn116       O132   2.046       .  S
Zn117       O120   1.928       .  S
Zn117       O122   1.969       .  S
Zn117       O124   1.974       .  S
Zn117       O128   2.008       .  S
Zn118       O120   1.969       .  S
Zn118       O123   2.026       .  S
Zn118       O126   2.047       .  S
Zn118       O129   2.060       .  S
Zn119       O120   1.926       .  S
Zn119       O127   1.973       .  S
Zn119       O130   2.005       .  S
Zn119       O131   1.968       .  S
O121        C133   1.276       .  A
O122        C134   1.269       .  A
O123        C135   1.276       .  A
O124        C133   1.269       .  A
O125        C135   1.275       .  A
O126        C134   1.278       .  A
O127        C136   1.268       .  A
O128        C137   1.270       .  A
O129        C136   1.278       .  A
O130        C137   1.271       .  A
O131        C138   1.268       .  A
O132        C138   1.278       .  A
C133       C2501   1.487       .  S
C134       C2228   1.487       .  S
C135       C2181   1.494       .  S
C136       C2161   1.477       .  S
C137       C2141   1.476       .  S
C138       C2241   1.486       .  S
Zn139       O143   1.929       .  S
Zn139       O144   2.024       .  S
Zn139       O148   1.975       .  S
Zn139       O155   1.995       .  S
Zn140       O143   1.937       .  S
Zn140       O145   1.987       .  S
Zn140       O147   2.019       .  S
Zn140       O151   1.977       .  S
Zn141       O143   1.980       .  S
Zn141       O146   2.054       .  S
Zn141       O149   2.046       .  S
Zn141       O152   2.038       .  S
Zn142       O143   1.968       .  S
Zn142       O150   2.001       .  S
Zn142       O153   2.040       .  S
Zn142       O154   2.067       .  S
O144        C156   1.274       .  A
O145        C157   1.270       .  A
O146        C158   1.278       .  A
O147        C156   1.273       .  A
O148        C158   1.271       .  A
O149        C157   1.277       .  A
O150        C159   1.273       .  A
O151        C160   1.269       .  A
O152        C159   1.276       .  A
O153        C160   1.276       .  A
O154        C161   1.279       .  A
O155        C161   1.271       .  A
C156       C2068   1.483       .  S
C157       C2441   1.480       .  S
C158       C2081   1.485       .  S
C159       C2288   1.478       .  S
C160       C2108   1.485       .  S
C161       C2128   1.485       .  S
Zn162       O166   1.935       .  S
Zn162       O167   1.983       .  S
Zn162       O171   2.005       .  S
Zn162       O178   2.027       .  S
Zn163       O166   1.974       .  S
Zn163       O168   2.008       .  S
Zn163       O170   2.045       .  S
Zn163       O174   2.075       .  S
Zn164       O166   1.968       .  S
Zn164       O169   2.040       .  S
Zn164       O172   2.031       .  S
Zn164       O175   2.047       .  S
Zn165       O166   1.921       .  S
Zn165       O173   1.976       .  S
Zn165       O176   1.964       .  S
Zn165       O177   2.003       .  S
O167        C179   1.272       .  A
O168        C180   1.273       .  A
O169        C181   1.276       .  A
O170        C179   1.278       .  A
O171        C181   1.273       .  A
O172        C180   1.276       .  A
O173        C182   1.271       .  A
O174        C183   1.279       .  A
O175        C182   1.278       .  A
O176        C183   1.267       .  A
O177        C184   1.271       .  A
O178        C184   1.273       .  A
C179       C2088   1.488       .  S
C180       C2188   1.491       .  S
C181       C2341   1.484       .  S
C182       C2101   1.479       .  S
C183       C2041   1.488       .  S
C184       C2021   1.480       .  S
Zn185       O189   1.933       .  S
Zn185       O190   1.971       .  S
Zn185       O194   1.984       .  S
Zn185       O201   1.995       .  S
Zn186       O189   1.975       .  S
Zn186       O191   2.029       .  S
Zn186       O193   2.042       .  S
Zn186       O197   2.038       .  S
Zn187       O189   1.955       .  S
Zn187       O192   2.019       .  S
Zn187       O195   1.987       .  S
Zn187       O198   2.020   1_545  S
Zn188       O189   1.930       .  S
Zn188       O196   1.986   1_545  S
Zn188       O199   1.985       .  S
Zn188       O200   2.007       .  S
O190        C202   1.269       .  A
O191        C203   1.275       .  A
O192        C204   1.273       .  A
O193        C202   1.276       .  A
O194        C204   1.269       .  A
O195        C203   1.271       .  A
O196        C205   1.270       .  A
O197        C206   1.276       .  A
O198        C205   1.274       .  A
O199        C206   1.271       .  A
O200        C207   1.272       .  A
O201        C207   1.270       .  A
C202       C1968   1.469       .  S
C203       C2008   1.487       .  S
C204       C2428   1.471       .  S
C205       C1941   1.481       .  S
C206       C1988   1.481       .  S
C207       C1921   1.474       .  S
Zn208       O212   1.965       .  S
Zn208       O213   2.011       .  S
Zn208       O217   2.027       .  S
Zn208       O224   2.031       .  S
Zn209       O212   1.952       .  S
Zn209       O214   2.013       .  S
Zn209       O216   2.005       .  S
Zn209       O220   2.028       .  S
Zn210       O212   1.955       .  S
Zn210       O215   2.004       .  S
Zn210       O218   2.007       .  S
Zn210       O221   2.033       .  S
Zn211       O212   1.932       .  S
Zn211       O219   1.993       .  S
Zn211       O222   2.000       .  S
Zn211       O223   1.981       .  S
O213        C225   1.272       .  A
O214        C226   1.275       .  A
O215        C227   1.272       .  A
O216        C225   1.272       .  A
O217        C227   1.275       .  A
O218        C226   1.273       .  A
O219        C228   1.271       .  A
O220        C229   1.274       .  A
O221        C228   1.275       .  A
O222        C229   1.271       .  A
O223        C230   1.270       .  A
O224        C230   1.276       .  A
C225       C1868   1.487       .  S
C226       C1948   1.482       .  S
C227       C2328   1.482       .  S
C228       C1908   1.483       .  S
C229       C1888   1.478       .  S
C230       C1961   1.476       .  S
Zn231       O235   1.942       .  S
Zn231       O236   2.020       .  S
Zn231       O240   1.992       .  S
Zn231       O247   2.002       .  S
Zn232       O235   1.929       .  S
Zn232       O237   1.990       .  S
Zn232       O239   2.014       .  S
Zn232       O243   1.983       .  S
Zn233       O235   1.966       .  S
Zn233       O238   2.036       .  S
Zn233       O241   2.058       .  S
Zn233       O244   2.010       .  S
Zn234       O235   1.969       .  S
Zn234       O242   2.032       .  S
Zn234       O245   2.058       .  S
Zn234       O246   2.042       .  S
O236        C248   1.273       .  A
O237        C249   1.271       .  A
O238        C250   1.277       .  A
O239        C248   1.273       .  A
O240        C250   1.272       .  A
O241        C249   1.278       .  A
O242        C251   1.276       .  A
O243        C252   1.271       .  A
O244        C251   1.273       .  A
O245        C252   1.278       .  A
O246        C253   1.278       .  A
O247        C253   1.272       .  A
C248       C1781   1.487       .  S
C249       C2601   1.493       .  S
C250       C1808   1.482       .  S
C251       C1901   1.492       .  S
C252       C1828   1.494       .  S
C253       C1848   1.488       .  S
Zn254       O258   1.982       .  S
Zn254       O259   2.068   1_565  S
Zn254       O263   2.081       .  S
Zn254       O270   2.011       .  S
Zn255       O258   1.934       .  S
Zn255       O260   2.010       .  S
Zn255       O262   1.976   1_565  S
Zn255       O266   1.996       .  S
Zn256       O258   1.928       .  S
Zn256       O261   1.974       .  S
Zn256       O264   1.998       .  S
Zn256       O267   1.965       .  S
Zn257       O258   1.980       .  S
Zn257       O265   2.063       .  S
Zn257       O268   2.057       .  S
Zn257       O269   2.024       .  S
O259        C271   1.279       .  A
O260        C272   1.272       .  A
O261        C273   1.267       .  A
O262        C271   1.270       .  A
O263        C273   1.280       .  A
O264        C272   1.270       .  A
O265        C274   1.278       .  A
O266        C275   1.271       .  A
O267        C274   1.268       .  A
O268        C275   1.278       .  A
O269        C276   1.276       .  A
O270        C276   1.275       .  A
C271       C1821   1.487       .  S
C272       C1741   1.482       .  S
C273       C2488   1.498       .  S
C274       C1801   1.478       .  S
C275       C1761   1.494       .  S
C276       C2001   1.487       .  S
Zn277       O281   1.939       .  S
Zn277       O282   1.985       .  S
Zn277       O286   2.000       .  S
Zn277       O293   2.018       .  S
Zn278       O281   1.974       .  S
Zn278       O283   2.024       .  S
Zn278       O285   2.047       .  S
Zn278       O289   2.042   1_545  S
Zn279       O281   1.949       .  S
Zn279       O284   2.019       .  S
Zn279       O287   2.001       .  S
Zn279       O290   2.027       .  S
Zn280       O281   1.926       .  S
Zn280       O288   2.011       .  S
Zn280       O291   1.974   1_545  S
Zn280       O292   1.997       .  S
O282        C294   1.269       .  A
O283        C295   1.275       .  A
O284        C296   1.274       .  A
O285        C294   1.278       .  A
O286        C296   1.273       .  A
O287        C295   1.272       .  A
O288        C297   1.272       .  A
O289        C298   1.276       .  A
O290        C297   1.274       .  A
O291        C298   1.271       .  A
O292        C299   1.271       .  A
O293        C299   1.273       .  A
C294       C2268   1.490       .  S
C295       C1661   1.485       .  S
C296       C1701   1.485       .  S
C297       C1768   1.480       .  S
C298       C1688   1.477       .  S
C299       C1728   1.483       .  S
Zn300       O304   1.927       .  S
Zn300       O305   2.003       .  S
Zn300       O309   1.991       .  S
Zn300       O316   1.962       .  S
Zn301       O304   1.950       .  S
Zn301       O306   2.001       .  S
Zn301       O308   2.031       .  S
Zn301       O312   1.991       .  S
Zn302       O304   1.958       .  S
Zn302       O307   2.044       .  S
Zn302       O310   2.014       .  S
Zn302       O313   2.021       .  S
Zn303       O304   1.977       .  S
Zn303       O311   2.030       .  S
Zn303       O314   2.054       .  S
Zn303       O315   2.057       .  S
O305        C317   1.271       .  A
O306        C318   1.273       .  A
O307        C319   1.276       .  A
O308        C317   1.274       .  A
O309        C319   1.271       .  A
O310        C318   1.275       .  A
O311        C320   1.275       .  A
O312        C321   1.270       .  A
O313        C320   1.275       .  A
O314        C321   1.280       .  A
O315        C322   1.278       .  A
O316        C322   1.268       .  A
C317       C1641   1.486       .  S
C318       C1681   1.486       .  S
C319       C1841   1.478       .  S
C320       C1621   1.482       .  S
C321       C2168   1.494       .  S
C322       C1708   1.479       .  S
Zn323       O327   1.928       .  S
Zn323       O328   1.998       .  S
Zn323       O332   2.004       .  S
Zn323       O339   1.969       .  S
Zn324       O327   1.969       .  S
Zn324       O329   2.037       .  S
Zn324       O331   2.063       .  S
Zn324       O335   1.997       .  S
Zn325       O327   1.941       .  S
Zn325       O330   2.026       .  S
Zn325       O333   1.992       .  S
Zn325       O336   1.990       .  S
Zn326       O327   1.982       .  S
Zn326       O334   2.053       .  S
Zn326       O337   2.039       .  S
Zn326       O338   2.054       .  S
O328        C340   1.271       .  A
O329        C341   1.277       .  A
O330        C342   1.274       .  A
O331        C340   1.278       .  A
O332        C342   1.272       .  A
O333        C341   1.272       .  A
O334        C343   1.277       .  A
O335        C344   1.272       .  A
O336        C343   1.270       .  A
O337        C344   1.277       .  A
O338        C345   1.278       .  A
O339        C345   1.269       .  A
C340       C2121   1.499       .  S
C341       C1581   1.482       .  S
C342       C1568   1.491       .  S
C343       C1881   1.490       .  S
C344       C1648   1.487       .  S
C345       C1601   1.482       .  S
Zn346       O350   1.966       .  S
Zn346       O351   2.026   1_565  S
Zn346       O355   2.036       .  S
Zn346       O362   2.007       .  S
Zn347       O350   1.936       .  S
Zn347       O352   2.011       .  S
Zn347       O354   1.996   1_565  S
Zn347       O358   1.992       .  S
Zn348       O350   1.940       .  S
Zn348       O353   1.999       .  S
Zn348       O356   2.038       .  S
Zn348       O359   1.997       .  S
Zn349       O350   1.965       .  S
Zn349       O357   2.028       .  S
Zn349       O360   2.029       .  S
Zn349       O361   2.011       .  S
O351        C363   1.276       .  A
O352        C364   1.273       .  A
O353        C365   1.272       .  A
O354        C363   1.271       .  A
O355        C365   1.276       .  A
O356        C364   1.275       .  A
O357        C366   1.275       .  A
O358        C367   1.271       .  A
O359        C366   1.273       .  A
O360        C367   1.275       .  A
O361        C368   1.272       .  A
O362        C368   1.272       .  A
C363       C1608   1.484       .  S
C364       C1541   1.491       .  S
C365       C2048   1.489       .  S
C366       C1588   1.489       .  S
C367       C1981   1.488       .  S
C368       C1721   1.484       .  S
Zn369       O373   1.961       .  S
Zn369       O374   2.040       .  S
Zn369       O378   2.005       .  S
Zn369       O385   2.010       .  S
Zn370       O373   1.926       .  S
Zn370       O375   1.959       .  S
Zn370       O377   1.978       .  S
Zn370       O381   2.011       .  S
Zn371       O373   1.984       .  S
Zn371       O376   2.038       .  S
Zn371       O379   2.061       .  S
Zn371       O382   2.064       .  S
Zn372       O373   1.944       .  S
Zn372       O380   1.990       .  S
Zn372       O383   2.043       .  S
Zn372       O384   2.002       .  S
O374        C386   1.275       .  A
O375        C387   1.268       .  A
O376        C388   1.275       .  A
O377        C386   1.269       .  A
O378        C388   1.272       .  A
O379        C387   1.280       .  A
O380        C389   1.271       .  A
O381        C390   1.271       .  A
O382        C389   1.279       .  A
O383        C390   1.275       .  A
O384        C391   1.273       .  A
O385        C391   1.274       .  A
C386       C1501   1.482       .  S
C387       C1461   1.482       .  S
C388       C2208   1.484       .  S
C389       C1481   1.495       .  S
C390       C1521   1.485       .  S
C391       C1448   1.473       .  S
Zn392       O396   1.936       .  S
Zn392       O397   2.009       .  S
Zn392       O401   1.995       .  S
Zn392       O408   1.968       .  S
Zn393       O396   1.934       .  S
Zn393       O398   1.960       .  S
Zn393       O400   2.004       .  S
Zn393       O404   1.983       .  S
Zn394       O396   1.972       .  S
Zn394       O399   2.061       .  S
Zn394       O402   2.047       .  S
Zn394       O405   2.024       .  S
Zn395       O396   1.980       .  S
Zn395       O403   2.040       .  S
Zn395       O406   2.057       .  S
Zn395       O407   2.056       .  S
O397        C409   1.271       .  A
O398        C410   1.268       .  A
O399        C411   1.279       .  A
O400        C409   1.270       .  A
O401        C411   1.271       .  A
O402        C410   1.277       .  A
O403        C412   1.277       .  A
O404        C413   1.269       .  A
O405        C412   1.276       .  A
O406        C413   1.278       .  A
O407        C414   1.279       .  A
O408        C414   1.269       .  A
C409       C2148   1.484       .  S
C410       C1441   1.485       .  S
C411       C1388   1.490       .  S
C412       C1421   1.495       .  S
C413       C1408   1.493       .  S
C414       C1468   1.486       .  S
Zn415       O419   1.970       .  S
Zn415       O420   2.044       .  S
Zn415       O424   2.058       .  S
Zn415       O431   2.045       .  S
Zn416       O419   1.932       .  S
Zn416       O421   2.025       .  S
Zn416       O423   1.991       .  S
Zn416       O427   1.975       .  S
Zn417       O419   1.933       .  S
Zn417       O422   1.980       .  S
Zn417       O425   2.018       .  S
Zn417       O428   1.976       .  S
Zn418       O419   1.970       .  S
Zn418       O426   2.048       .  S
Zn418       O429   2.034       .  S
Zn418       O430   2.018       .  S
O420        C432   1.278       .  A
O421        C433   1.272       .  A
O422        C434   1.271       .  A
O423        C432   1.271       .  A
O424        C434   1.279       .  A
O425        C433   1.272       .  A
O426        C435   1.278       .  A
O427        C436   1.271       .  A
O428        C435   1.270       .  A
O429        C436   1.275       .  A
O430        C437   1.274       .  A
O431        C437   1.277       .  A
C432       C1361   1.479       .  S
C433       C2061   1.491       .  S
C434       C1301   1.480       .  S
C435       C1341   1.479       .  S
C436       C1328   1.482       .  S
C437       C1528   1.489       .  S
Zn438       O442   1.939       .  S
Zn438       O443   2.014       .  S
Zn438       O447   2.005       .  S
Zn438       O454   1.982       .  S
Zn439       O442   1.936       .  S
Zn439       O444   1.965       .  S
Zn439       O446   2.018       .  S
Zn439       O450   2.003       .  S
Zn440       O442   1.980       .  S
Zn440       O445   2.051       .  S
Zn440       O448   2.057       .  S
Zn440       O451   2.045       .  S
Zn441       O442   1.963       .  S
Zn441       O449   2.012       .  S
Zn441       O452   2.068       .  S
Zn441       O453   2.049       .  S
O443        C455   1.272       .  A
O444        C456   1.270       .  A
O445        C457   1.277       .  A
O446        C455   1.272       .  A
O447        C457   1.272       .  A
O448        C456   1.279       .  A
O449        C458   1.273       .  A
O450        C459   1.271       .  A
O451        C458   1.278       .  A
O452        C459   1.279       .  A
O453        C460   1.278       .  A
O454        C460   1.271       .  A
C455       C2028   1.485       .  S
C456       C1321   1.485       .  S
C457       C1288   1.482       .  S
C458       C1428   1.497       .  S
C459       C1268   1.492       .  S
C460       C1308   1.483       .  S
Zn461       O465   1.976       .  S
Zn461       O466   2.075       .  S
Zn461       O470   2.037       .  S
Zn461       O477   2.071       .  S
Zn462       O465   1.936       .  S
Zn462       O467   2.001       .  S
Zn462       O469   1.973       .  S
Zn462       O473   2.005       .  S
Zn463       O465   1.947       .  S
Zn463       O468   2.000       .  S
Zn463       O471   2.021       .  S
Zn463       O474   2.046       .  S
Zn464       O465   1.919       .  S
Zn464       O472   1.982       .  S
Zn464       O475   1.995       .  S
Zn464       O476   1.966       .  S
O466        C478   1.281       .  A
O467        C479   1.272       .  A
O468        C480   1.273       .  A
O469        C478   1.269       .  A
O470        C480   1.276       .  A
O471        C479   1.275       .  A
O472        C481   1.270       .  A
O473        C482   1.271       .  A
O474        C481   1.276       .  A
O475        C482   1.269       .  A
O476        C483   1.268       .  A
O477        C483   1.281       .  A
C478       C1228   1.492       .  S
C479       C1181   1.475       .  S
C480       C2548   1.474       .  S
C481       C1508   1.479       .  S
C482       C1241   1.484       .  S
C483       C1208   1.492       .  S
Zn484       O488   1.934       .  S
Zn484       O489   2.000       .  S
Zn484       O493   2.001       .  S
Zn484       O500   1.977       .  S
Zn485       O488   1.939       .  S
Zn485       O490   1.990       .  S
Zn485       O492   2.017       .  S
Zn485       O496   1.999       .  S
Zn486       O488   1.958       .  S
Zn486       O491   2.035       .  S
Zn486       O494   2.039       .  S
Zn486       O497   2.016       .  S
Zn487       O488   1.970       .  S
Zn487       O495   2.022       .  S
Zn487       O498   2.041       .  S
Zn487       O499   2.042       .  S
O489        C501   1.270       .  A
O490        C502   1.271       .  A
O491        C503   1.275       .  A
O492        C501   1.273       .  A
O493        C503   1.272       .  A
O494        C502   1.277       .  A
O495        C504   1.274       .  A
O496        C505   1.272       .  A
O497        C504   1.275       .  A
O498        C505   1.277       .  A
O499        C506   1.277       .  A
O500        C506   1.271       .  A
C501       C2461   1.479       .  S
C502       C1201   1.482       .  S
C503       C1401   1.482       .  S
C504       C1161   1.484       .  S
C505       C1141   1.490       .  S
C506       C1188   1.480       .  S
Zn507       O511   1.916       .  S
Zn507       O512   1.973       .  S
Zn507       O516   1.993       .  S
Zn507       O523   1.963       .  S
Zn508       O511   1.963       .  S
Zn508       O513   2.037       .  S
Zn508       O515   2.055       .  S
Zn508       O519   2.032       .  S
Zn509       O511   1.948       .  S
Zn509       O514   2.017       .  S
Zn509       O517   1.993       .  S
Zn509       O520   1.979       .  S
Zn510       O511   1.970       .  S
Zn510       O518   2.040       .  S
Zn510       O521   2.023       .  S
Zn510       O522   2.064       .  S
O512        C524   1.268       .  A
O513        C525   1.277       .  A
O514        C526   1.272       .  A
O515        C524   1.278       .  A
O516        C526   1.269       .  A
O517        C525   1.271       .  A
O518        C527   1.278       .  A
O519        C528   1.276       .  A
O520        C527   1.269       .  A
O521        C528   1.275       .  A
O522        C529   1.278       .  A
O523        C529   1.268       .  A
C524       C1368   1.487       .  S
C525       C1081   1.485       .  S
C526       C1248   1.486       .  S
C527       C1128   1.477       .  S
C528       C2361   1.490       .  S
C529       C1108   1.483       .  S
Zn530       O534   1.926       .  S
Zn530       O535   1.983       .  S
Zn530       O539   1.991       .  S
Zn530       O546   1.999       .  S
Zn531       O534   1.971       .  S
Zn531       O536   2.018       .  S
Zn531       O538   2.041       .  S
Zn531       O542   2.019       .  S
Zn532       O534   1.961       .  S
Zn532       O537   2.041       .  S
Zn532       O540   1.999       .  S
Zn532       O543   2.019       .  S
Zn533       O534   1.957       .  S
Zn533       O541   2.016       .  S
Zn533       O544   2.005       .  S
Zn533       O545   2.039       .  S
O535        C547   1.270       .  A
O536        C548   1.274       .  A
O537        C549   1.276       .  A
O538        C547   1.275       .  A
O539        C549   1.270       .  A
O540        C548   1.272       .  A
O541        C550   1.274       .  A
O542        C551   1.275       .  A
O543        C550   1.275       .  A
O544        C551   1.272       .  A
O545        C552   1.276       .  A
O546        C552   1.272       .  A
C547       C1088   1.474       .  S
C548       C2308   1.485       .  S
C549       C1281   1.491       .  S
C550       C1101   1.492       .  S
C551       C1068   1.487       .  S
C552       C1168   1.492       .  S
Zn553       O557   1.930       .  S
Zn553       O558   1.973   1_545  S
Zn553       O562   1.996       .  S
Zn553       O569   1.985       .  S
Zn554       O557   1.970       .  S
Zn554       O559   2.051       .  S
Zn554       O561   2.046   1_545  S
Zn554       O565   2.012       .  S
Zn555       O557   1.923       .  S
Zn555       O560   1.999       .  S
Zn555       O563   1.955       .  S
Zn555       O566   1.969       .  S
Zn556       O557   1.968       .  S
Zn556       O564   2.060       .  S
Zn556       O567   2.037       .  S
Zn556       O568   2.047       .  S
O558        C570   1.270       .  A
O559        C571   1.276       .  A
O560        C572   1.269       .  A
O561        C570   1.278       .  A
O562        C572   1.269       .  A
O563        C571   1.267       .  A
O564        C573   1.279       .  A
O565        C574   1.274       .  A
O566        C573   1.269       .  A
O567        C574   1.277       .  A
O568        C575   1.277       .  A
O569        C575   1.270       .  A
C570        C981   1.478       .  S
C571       C1121   1.483       .  S
C572       C1928   1.482       .  S
C573       C1001   1.485       .  S
C574       C1048   1.489       .  S
C575       C1028   1.475       .  S
Zn576       O580   1.934       .  S
Zn576       O581   2.000       .  S
Zn576       O585   1.990       .  S
Zn576       O592   2.017       .  S
Zn577       O580   1.965       .  S
Zn577       O582   2.027       .  S
Zn577       O584   2.031       .  S
Zn577       O588   2.030       .  S
Zn578       O580   1.960       .  S
Zn578       O583   2.033       .  S
Zn578       O586   1.994       .  S
Zn578       O589   2.035       .  S
Zn579       O580   1.931       .  S
Zn579       O587   1.984       .  S
Zn579       O590   1.980       .  S
Zn579       O591   2.003       .  S
O581        C593   1.272       .  A
O582        C594   1.274       .  A
O583        C595   1.276       .  A
O584        C593   1.275       .  A
O585        C595   1.272       .  A
O586        C594   1.272       .  A
O587        C596   1.270       .  A
O588        C597   1.276       .  A
O589        C596   1.275       .  A
O590        C597   1.270       .  A
O591        C598   1.272       .  A
O592        C598   1.273       .  A
C593        C948   1.484       .  S
C594        C961   1.483       .  S
C595       C1008   1.487       .  S
C596       C1061   1.476       .  S
C597        C988   1.486       .  S
C598       C1861   1.483       .  S
Zn599       O603   1.955       .  S
Zn599       O604   2.019       .  S
Zn599       O608   2.041       .  S
Zn599       O615   2.011       .  S
Zn600       O603   1.963       .  S
Zn600       O605   2.050       .  S
Zn600       O607   2.029       .  S
Zn600       O611   2.014       .  S
Zn601       O603   1.934       .  S
Zn601       O606   2.002       .  S
Zn601       O609   1.973       .  S
Zn601       O612   1.969       .  S
Zn602       O603   1.976       .  S
Zn602       O610   2.048       .  S
Zn602       O613   2.052       .  S
Zn602       O614   2.023       .  S
O604        C616   1.276       .  A
O605        C617   1.277       .  A
O606        C618   1.271       .  A
O607        C616   1.276       .  A
O608        C618   1.275       .  A
O609        C617   1.268       .  A
O610        C619   1.277       .  A
O611        C620   1.274       .  A
O612        C619   1.267       .  A
O613        C620   1.278       .  A
O614        C621   1.274       .  A
O615        C621   1.273       .  A
C616        C908   1.491       .  S
C617        C968   1.482       .  S
C618        C928   1.491       .  S
C619        C888   1.468       .  S
C620       C1221   1.498       .  S
C621       C1788   1.491       .  S
Zn622       O626   1.923       .  S
Zn622       O627   1.998       .  S
Zn622       O631   1.974       .  S
Zn622       O638   1.963       .  S
Zn623       O626   1.937   1_545  S
Zn623       O628   1.983       .  S
Zn623       O630   2.025   1_545  S
Zn623       O634   1.981       .  S
Zn624       O626   1.970       .  S
Zn624       O629   2.052       .  S
Zn624       O632   2.046   1_565  S
Zn624       O635   2.003       .  S
Zn625       O626   1.983       .  S
Zn625       O633   2.046       .  S
Zn625       O636   2.056       .  S
Zn625       O637   2.066       .  S
O627        C639   1.270       .  A
O628        C640   1.270       .  A
O629        C641   1.277       .  A
O630        C639   1.273       .  A
O631        C641   1.269       .  A
O632        C640   1.277       .  A
O633        C642   1.278       .  A
O634        C643   1.271   1_545  A
O635        C642   1.273       .  A
O636        C643   1.279       .  A
O637        C644   1.279       .  A
O638        C644   1.268       .  A
C639       C1748   1.478       .  S
C640        C901   1.483       .  S
C641       C1148   1.486       .  S
C642       C1041   1.494       .  S
C643        C861   1.479       .  S
C644        C881   1.484       .  S
Zn645       O649   1.969       .  S
Zn645       O650   2.062       .  S
Zn645       O654   2.023       .  S
Zn645       O661   2.063   1_545  S
Zn646       O649   1.939       .  S
Zn646       O651   2.006       .  S
Zn646       O653   1.992       .  S
Zn646       O657   2.030       .  S
Zn647       O649   1.965       .  S
Zn647       O652   2.021       .  S
Zn647       O655   2.029       .  S
Zn647       O658   2.050       .  S
Zn648       O649   1.923       .  S
Zn648       O656   1.979       .  S
Zn648       O659   1.998       .  S
Zn648       O660   1.971   1_545  S
O650        C662   1.279       .  A
O651        C663   1.274       .  A
O652        C664   1.275       .  A
O653        C662   1.271       .  A
O654        C664   1.276       .  A
O655        C663   1.276       .  A
O656        C665   1.269       .  A
O657        C666   1.275       .  A
O658        C665   1.277       .  A
O659        C666   1.270       .  A
O660        C667   1.269       .  A
O661        C667   1.279       .  A
C662       C1488   1.489       .  S
C663        C821   1.489       .  S
C664       C1668   1.480       .  S
C665        C868   1.481       .  S
C666        C841   1.491       .  S
C667        C801   1.476       .  S
Zn668       O672   1.926       .  S
Zn668       O673   1.993       .  S
Zn668       O677   1.977       .  S
Zn668       O684   1.997       .  S
Zn669       O672   1.957       .  S
Zn669       O674   1.993       .  S
Zn669       O676   2.045       .  S
Zn669       O680   2.016       .  S
Zn670       O672   1.981       .  S
Zn670       O675   2.064       .  S
Zn670       O678   2.070       .  S
Zn670       O681   2.037       .  S
Zn671       O672   1.957       .  S
Zn671       O679   2.021       .  S
Zn671       O682   2.008       .  S
Zn671       O683   2.054       .  S
O673        C685   1.270       .  A
O674        C686   1.271       .  A
O675        C687   1.280       .  A
O676        C685   1.276       .  A
O677        C687   1.271       .  A
O678        C686   1.280       .  A
O679        C688   1.276       .  A
O680        C689   1.276       .  A
O681        C688   1.276       .  A
O682        C689   1.272       .  A
O683        C690   1.276       .  A
O684        C690   1.271       .  A
C685        C788   1.491       .  S
C686       C1381   1.491       .  S
C687        C828   1.482       .  S
C688       C1628   1.495       .  S
C689        C808   1.488       .  S
C690        C921   1.496       .  S
Zn691       O695   1.967       .  S
Zn691       O696   2.044       .  S
Zn691       O700   2.023       .  S
Zn691       O707   2.040       .  S
Zn692       O695   1.926       .  S
Zn692       O697   1.962       .  S
Zn692       O699   1.977       .  S
Zn692       O703   1.998       .  S
Zn693       O695   1.982       .  S
Zn693       O698   2.021       .  S
Zn693       O701   2.062       .  S
Zn693       O704   2.043       .  S
Zn694       O695   1.944       .  S
Zn694       O702   1.983       .  S
Zn694       O705   2.029       .  S
Zn694       O706   1.999       .  S
O696        C708   1.276       .  A
O697        C709   1.268       .  A
O698        C710   1.275       .  A
O699        C708   1.268       .  A
O700        C710   1.275       .  A
O701        C709   1.277       .  A
O702        C711   1.270       .  A
O703        C712   1.270       .  A
O704        C711   1.277       .  A
O705        C712   1.274       .  A
O706        C713   1.272       .  A
O707        C713   1.276       .  A
C708        C941   1.481       .  S
C709        C748   1.478       .  S
C710       C1561   1.484       .  S
C711       C1348   1.486       .  S
C712        C781   1.484       .  S
C713        C761   1.492       .  S
Zn714       O718   1.988       .  S
Zn714       O719   2.079   1_565  S
Zn714       O723   2.079       .  S
Zn714       O730   2.048       .  S
Zn715       O718   1.930   1_545  S
Zn715       O720   2.001   1_545  S
Zn715       O722   1.963       .  S
Zn715       O726   2.001   1_545  S
Zn716       O718   1.954       .  S
Zn716       O721   2.000       .  S
Zn716       O724   2.045       .  S
Zn716       O727   2.004       .  S
Zn717       O718   1.962       .  S
Zn717       O725   2.016       .  S
Zn717       O728   2.037       .  S
Zn717       O729   2.006       .  S
O719        C731   1.281       .  A
O720        C732   1.271       .  A
O721        C733   1.272       .  A
O722        C731   1.268       .  A
O723        C733   1.281       .  A
O724        C732   1.276       .  A
O725        C734   1.274       .  A
O726        C735   1.270       .  A
O727        C734   1.274       .  A
O728        C735   1.276       .  A
O729        C736   1.272       .  A
O730        C736   1.277       .  A
C731        C768   1.494       .  S
C732        C848   1.494       .  S
C733       C1261   1.499       .  S
C734        C741   1.489       .  S
C735       C1021   1.490       .  S
C736       C1548   1.484       .  S
C737        C738   1.403       .  A
C737        C742   1.396       .  A
C737        F755   1.358       .  S
C738        C743   1.482       .  S
C738        C739   1.406       .  A
C739        C740   1.399       .  A
C739        F744   1.358       .  S
C740        C741   1.412       .  A
C740        F756   1.358       .  S
C741        C742   1.413       .  A
C742        F745   1.358       .  S
C743        C746   1.411       .  A
C743        C750   1.401       .  A
C746        C747   1.405       .  A
C746        F751   1.358       .  S
C747        C748   1.406       .  A
C747        F753   1.357       .  S
C748        C749   1.409       .  A
C749        C750   1.391       .  A
C749        F752   1.359       .  S
C750        F754   1.358       .  S
C757        C758   1.403       .  A
C757        C762   1.402       .  A
C757        F775   1.358       .  S
C758        C763   1.477       .  S
C758        C759   1.399       .  A
C759        C760   1.397       .  A
C759        F764   1.358       .  S
C760        C761   1.415       .  A
C760        F776   1.358       .  S
C761        C762   1.413       .  A
C762        F765   1.357       .  S
C763        C766   1.396       .  A
C763        C770   1.405       .  A
C766        C767   1.393       .  A
C766        F771   1.359       .  S
C767        C768   1.418       .  A
C767        F773   1.358       .  S
C768        C769   1.411       .  A
C769        C770   1.406       .  A
C769        F772   1.357       .  S
C770        F774   1.357       .  S
C777        C778   1.403       .  A
C777        C782   1.401       .  A
C777        F795   1.358       .  S
C778        C783   1.476       .  S
C778        C779   1.402       .  A
C779        C780   1.398       .  A
C779        F784   1.358       .  S
C780        C781   1.411       .  A
C780        F796   1.358       .  S
C781        C782   1.410       .  A
C782        F785   1.358       .  S
C783        C786   1.399       .  A
C783        C790   1.403       .  A
C786        C787   1.397       .  A
C786        F791   1.358       .  S
C787        C788   1.415       .  A
C787        F793   1.358       .  S
C788        C789   1.412       .  A
C789        C790   1.402       .  A
C789        F792   1.357       .  S
C790        F794   1.358       .  S
C797        C798   1.404       .  A
C797        C802   1.394       .  A
C797        F815   1.358       .  S
C798        C803   1.482       .  S
C798        C799   1.409       .  A
C799        C800   1.403       .  A
C799        F804   1.358       .  S
C800        C801   1.405       .  A
C800        F816   1.357       .  S
C801        C802   1.408       .  A
C802        F805   1.359       .  S
C803        C806   1.403       .  A
C803        C810   1.406       .  A
C806        C807   1.396       .  A
C806        F811   1.358       .  S
C807        C808   1.414       .  A
C807        F813   1.357       .  S
C808        C809   1.411       .  A
C809        C810   1.400       .  A
C809        F812   1.359       .  S
C810        F814   1.358       .  S
C817        C818   1.401       .  A
C817        C822   1.396       .  A
C817        F835   1.358       .  S
C818        C823   1.477       .  S
C818        C819   1.403       .  A
C819        C820   1.402       .  A
C819        F824   1.358       .  S
C820        C821   1.412       .  A
C820        F836   1.358       .  S
C821        C822   1.413       .  A
C822        F825   1.358       .  S
C823        C826   1.405       .  A
C823        C830   1.401       .  A
C826        C827   1.404       .  A
C826        F831   1.357       .  S
C827        C828   1.408       .  A
C827        F833   1.357       .  S
C828        C829   1.411       .  A
C829        C830   1.395       .  A
C829        F832   1.358       .  S
C830        F834   1.358       .  S
C837        C838   1.403       .  A
C837        C842   1.400       .  A
C837        F855   1.358       .  S
C838        C843   1.484       .  S
C838        C839   1.405   1_565  A
C839        C840   1.399       .  A
C839        F844   1.358       .  S
C840        C841   1.411       .  A
C840        F856   1.358       .  S
C841        C842   1.415   1_545  A
C842        F845   1.358       .  S
C843        C846   1.406       .  A
C843        C850   1.402   1_565  A
C846        C847   1.404       .  A
C846        F851   1.358       .  S
C847        C848   1.413       .  A
C847        F853   1.357       .  S
C848        C849   1.414   1_565  A
C849        C850   1.397       .  A
C849        F852   1.358       .  S
C850        F854   1.358       .  S
C857        C858   1.402       .  A
C857        C862   1.395       .  A
C857        F875   1.358       .  S
C858        C863   1.482   1_655  S
C858        C859   1.409   1_545  A
C859        C860   1.402       .  A
C859        F864   1.358       .  S
C860        C861   1.405       .  A
C860        F876   1.357       .  S
C861        C862   1.410   1_565  A
C862        F865   1.358       .  S
C863        C866   1.402       .  A
C863        C870   1.408       .  A
C866        C867   1.396       .  A
C866        F871   1.358       .  S
C867        C868   1.411       .  A
C867        F873   1.358       .  S
C868        C869   1.406       .  A
C869        C870   1.401       .  A
C869        F872   1.358       .  S
C870        F874   1.358       .  S
C877        C878   1.408       .  A
C877        C882   1.406       .  A
C877        F895   1.358       .  S
C878        C883   1.478       .  S
C878        C879   1.398       .  A
C879        C880   1.392       .  A
C879        F884   1.358       .  S
C880        C881   1.414       .  A
C880        F896   1.359       .  S
C881        C882   1.408       .  A
C882        F885   1.357       .  S
C883        C886   1.403       .  A
C883        C890   1.407       .  A
C886        C887   1.398       .  A
C886        F891   1.358       .  S
C887        C888   1.406       .  A
C887        F893   1.358       .  S
C888        C889   1.403       .  A
C889        C890   1.399       .  A
C889        F892   1.358       .  S
C890        F894   1.358       .  S
C897        C898   1.402       .  A
C897        C902   1.395       .  A
C897        F915   1.358       .  S
C898        C903   1.482       .  S
C898        C899   1.407       .  A
C899        C900   1.403       .  A
C899        F904   1.357       .  S
C900        C901   1.407       .  A
C900        F916   1.358       .  S
C901        C902   1.412       .  A
C902        F905   1.358       .  S
C903        C906   1.403       .  A
C903        C910   1.404       .  A
C906        C907   1.397       .  A
C906        F911   1.358       .  S
C907        C908   1.412       .  A
C907        F913   1.358       .  S
C908        C909   1.413       .  A
C909        C910   1.402       .  A
C909        F912   1.357       .  S
C910        F914   1.358       .  S
C917        C918   1.405       .  A
C917        C922   1.406       .  A
C917        F935   1.358       .  S
C918        C923   1.481   1_455  S
C918        C919   1.399       .  A
C919        C920   1.396       .  A
C919        F924   1.358       .  S
C920        C921   1.415       .  A
C920        F936   1.358       .  S
C921        C922   1.414       .  A
C922        F925   1.358       .  S
C923        C926   1.403       .  A
C923        C930   1.402       .  A
C926        C927   1.402       .  A
C926        F931   1.358       .  S
C927        C928   1.412       .  A
C927        F933   1.358       .  S
C928        C929   1.414       .  A
C929        C930   1.400       .  A
C929        F932   1.358       .  S
C930        F934   1.358       .  S
C937        C938   1.407       .  A
C937        C942   1.400       .  A
C937        F955   1.358       .  S
C938        C943   1.482   1_455  S
C938        C939   1.403       .  A
C939        C940   1.396       .  A
C939        F944   1.358       .  S
C940        C941   1.412       .  A
C940        F956   1.359       .  S
C941        C942   1.406       .  A
C942        F945   1.357       .  S
C943        C946   1.404       .  A
C943        C950   1.406       .  A
C946        C947   1.396       .  A
C946        F951   1.358       .  S
C947        C948   1.410       .  A
C947        F953   1.358       .  S
C948        C949   1.410       .  A
C949        C950   1.400       .  A
C949        F952   1.358       .  S
C950        F954   1.358       .  S
C957        C958   1.402       .  A
C957        C962   1.394       .  A
C957        F975   1.358       .  S
C958        C963   1.479       .  S
C958        C959   1.406       .  A
C959        C960   1.401       .  A
C959        F964   1.358       .  S
C960        C961   1.410       .  A
C960        F976   1.358       .  S
C961        C962   1.411       .  A
C962        F965   1.358       .  S
C963        C966   1.401       .  A
C963        C970   1.408       .  A
C966        C967   1.395       .  A
C966        F971   1.358       .  S
C967        C968   1.413       .  A
C967        F973   1.359       .  S
C968        C969   1.406       .  A
C969        C970   1.400       .  A
C969        F972   1.357       .  S
C970        F974   1.358       .  S
C977        C978   1.400       .  A
C977        C982   1.393       .  A
C977        F995   1.358       .  S
C978        C983   1.474       .  S
C978        C979   1.405       .  A
C979        C980   1.400       .  A
C979        F984   1.358       .  S
C980        C981   1.407       .  A
C980        F996   1.357       .  S
C981        C982   1.411       .  A
C982        F985   1.359       .  S
C983        C986   1.400       .  A
C983        C990   1.403       .  A
C986        C987   1.395       .  A
C986        F991   1.358       .  S
C987        C988   1.416       .  A
C987        F993   1.358       .  S
C988        C989   1.410       .  A
C989        C990   1.398       .  A
C989        F992   1.357       .  S
C990        F994   1.358       .  S
C997        C998   1.404       .  A
C997       C1002   1.403       .  A
C997       F1015   1.357       .  S
C998       C1003   1.474       .  S
C998        C999   1.399       .  A
C999       C1000   1.394       .  A
C999       F1004   1.358       .  S
C1000      C1001   1.413       .  A
C1000      F1016   1.358       .  S
C1001      C1002   1.410       .  A
C1002      F1005   1.357       .  S
C1003      C1006   1.403       .  A
C1003      C1010   1.398       .  A
C1006      C1007   1.403       .  A
C1006      F1011   1.358       .  S
C1007      C1008   1.412       .  A
C1007      F1013   1.358       .  S
C1008      C1009   1.414       .  A
C1009      C1010   1.393       .  A
C1009      F1012   1.358       .  S
C1010      F1014   1.358       .  S
C1017      C1018   1.401       .  A
C1017      C1022   1.398       .  A
C1017      F1035   1.358       .  S
C1018      C1023   1.481   1_455  S
C1018      C1019   1.405   1_545  A
C1019      C1020   1.402       .  A
C1019      F1024   1.358       .  S
C1020      C1021   1.410       .  A
C1020      F1036   1.358       .  S
C1021      C1022   1.415   1_565  A
C1022      F1025   1.358       .  S
C1023      C1026   1.406       .  A
C1023      C1030   1.404       .  A
C1026      C1027   1.400       .  A
C1026      F1031   1.358       .  S
C1027      C1028   1.405       .  A
C1027      F1033   1.358       .  S
C1028      C1029   1.408       .  A
C1029      C1030   1.399       .  A
C1029      F1032   1.358       .  S
C1030      F1034   1.358       .  S
C1037      C1038   1.402       .  A
C1037      C1042   1.398       .  A
C1037      F1055   1.358       .  S
C1038      C1043   1.482       .  S
C1038      C1039   1.405   1_545  A
C1039      C1040   1.402       .  A
C1039      F1044   1.358       .  S
C1040      C1041   1.412       .  A
C1040      F1056   1.357       .  S
C1041      C1042   1.415   1_565  A
C1042      F1045   1.358       .  S
C1043      C1046   1.403       .  A
C1043      C1050   1.405       .  A
C1046      C1047   1.399       .  A
C1046      F1051   1.358   1_545  S
C1047      C1048   1.412       .  A
C1047      F1053   1.358       .  S
C1048      C1049   1.411       .  A
C1049      C1050   1.401       .  A
C1049      F1052   1.358       .  S
C1050      F1054   1.358       .  S
C1057      C1058   1.403       .  A
C1057      C1062   1.394       .  A
C1057      F1075   1.358       .  S
C1058      C1063   1.482       .  S
C1058      C1059   1.409       .  A
C1059      C1060   1.402       .  A
C1059      F1064   1.358       .  S
C1060      C1061   1.405       .  A
C1060      F1076   1.357       .  S
C1061      C1062   1.409       .  A
C1062      F1065   1.359       .  S
C1063      C1066   1.403       .  A
C1063      C1070   1.405       .  A
C1066      C1067   1.399       .  A
C1066      F1071   1.358       .  S
C1067      C1068   1.413       .  A
C1067      F1073   1.358       .  S
C1068      C1069   1.411       .  A
C1069      C1070   1.397       .  A
C1069      F1072   1.358       .  S
C1070      F1074   1.358       .  S
C1077      C1078   1.403   1_545  A
C1077      C1082   1.399       .  A
C1077      F1095   1.358   1_545  S
C1078      C1083   1.475       .  S
C1078      C1079   1.401   1_565  A
C1079      C1080   1.398       .  A
C1079      F1084   1.358   1_545  S
C1080      C1081   1.412       .  A
C1080      F1096   1.358       .  S
C1081      C1082   1.410       .  A
C1082      F1085   1.358       .  S
C1083      C1086   1.400       .  A
C1083      C1090   1.407       .  A
C1086      C1087   1.392       .  A
C1086      F1091   1.358       .  S
C1087      C1088   1.407       .  A
C1087      F1093   1.358       .  S
C1088      C1089   1.406       .  A
C1089      C1090   1.405       .  A
C1089      F1092   1.358       .  S
C1090      F1094   1.358       .  S
C1097      C1098   1.404       .  A
C1097      C1102   1.399       .  A
C1097      F1115   1.358       .  S
C1098      C1103   1.481       .  S
C1098      C1099   1.403       .  A
C1099      C1100   1.399       .  A
C1099      F1104   1.358       .  S
C1100      C1101   1.413       .  A
C1100      F1116   1.358       .  S
C1101      C1102   1.413       .  A
C1102      F1105   1.358       .  S
C1103      C1106   1.401       .  A
C1103      C1110   1.409       .  A
C1106      C1107   1.391       .  A
C1106      F1111   1.358       .  S
C1107      C1108   1.412       .  A
C1107      F1113   1.359       .  S
C1108      C1109   1.408       .  A
C1109      C1110   1.406       .  A
C1109      F1112   1.357       .  S
C1110      F1114   1.358       .  S
C1117      C1118   1.398       .  A
C1117      C1122   1.388       .  A
C1117      F1135   1.359       .  S
C1118      C1123   1.476       .  S
C1118      C1119   1.408       .  A
C1119      C1120   1.405       .  A
C1119      F1124   1.358       .  S
C1120      C1121   1.409       .  A
C1120      F1136   1.358       .  S
C1121      C1122   1.413       .  A
C1122      F1125   1.359       .  S
C1123      C1126   1.402       .  A
C1123      C1130   1.406       .  A
C1126      C1127   1.399       .  A
C1126      F1131   1.358       .  S
C1127      C1128   1.411       .  A
C1127      F1133   1.358       .  S
C1128      C1129   1.406       .  A
C1129      C1130   1.396       .  A
C1129      F1132   1.358       .  S
C1130      F1134   1.358       .  S
C1137      C1138   1.405       .  A
C1137      C1142   1.397       .  A
C1137      F1155   1.358       .  S
C1138      C1143   1.486       .  S
C1138      C1139   1.406       .  A
C1139      C1140   1.402       .  A
C1139      F1144   1.358       .  S
C1140      C1141   1.411       .  A
C1140      F1156   1.358       .  S
C1141      C1142   1.412       .  A
C1142      F1145   1.358       .  S
C1143      C1146   1.408       .  A
C1143      C1150   1.403       .  A
C1146      C1147   1.404       .  A
C1146      F1151   1.358       .  S
C1147      C1148   1.409       .  A
C1147      F1153   1.358       .  S
C1148      C1149   1.412       .  A
C1149      C1150   1.394       .  A
C1149      F1152   1.358       .  S
C1150      F1154   1.358       .  S
C1157      C1158   1.407       .  A
C1157      C1162   1.401       .  A
C1157      F1175   1.358       .  S
C1158      C1163   1.487       .  S
C1158      C1159   1.406       .  A
C1159      C1160   1.397       .  A
C1159      F1164   1.358       .  S
C1160      C1161   1.408       .  A
C1160      F1176   1.358       .  S
C1161      C1162   1.409       .  A
C1162      F1165   1.358       .  S
C1163      C1166   1.404       .  A
C1163      C1170   1.407       .  A
C1166      C1167   1.396       .  A
C1166      F1171   1.358       .  S
C1167      C1168   1.413       .  A
C1167      F1173   1.358       .  S
C1168      C1169   1.412       .  A
C1169      C1170   1.402       .  A
C1169      F1172   1.358       .  S
C1170      F1174   1.358       .  S
C1177      C1178   1.406       .  A
C1177      C1182   1.396       .  A
C1177      F1195   1.358       .  S
C1178      C1183   1.482       .  S
C1178      C1179   1.407       .  A
C1179      C1180   1.399       .  A
C1179      F1184   1.358       .  S
C1180      C1181   1.407       .  A
C1180      F1196   1.358       .  S
C1181      C1182   1.407       .  A
C1182      F1185   1.358       .  S
C1183      C1186   1.404       .  A
C1183      C1190   1.408       .  A
C1186      C1187   1.392       .  A
C1186      F1191   1.358       .  S
C1187      C1188   1.409       .  A
C1187      F1193   1.358       .  S
C1188      C1189   1.408       .  A
C1189      C1190   1.402       .  A
C1189      F1192   1.358       .  S
C1190      F1194   1.358       .  S
C1197      C1198   1.402       .  A
C1197      C1202   1.396   1_545  A
C1197      F1215   1.358       .  S
C1198      C1203   1.480       .  S
C1198      C1199   1.407       .  A
C1199      C1200   1.401   1_545  A
C1199      F1204   1.358       .  S
C1200      C1201   1.408       .  A
C1200      F1216   1.358       .  S
C1201      C1202   1.410       .  A
C1202      F1205   1.358       .  S
C1203      C1206   1.399       .  A
C1203      C1210   1.407       .  A
C1206      C1207   1.394       .  A
C1206      F1211   1.359       .  S
C1207      C1208   1.418       .  A
C1207      F1213   1.358       .  S
C1208      C1209   1.410       .  A
C1209      C1210   1.404       .  A
C1209      F1212   1.357       .  S
C1210      F1214   1.358       .  S
C1217      C1218   1.405       .  A
C1217      C1222   1.405       .  A
C1217      F1235   1.358       .  S
C1218      C1223   1.485       .  S
C1218      C1219   1.402       .  A
C1219      C1220   1.399       .  A
C1219      F1224   1.358       .  S
C1220      C1221   1.416       .  A
C1220      F1236   1.358       .  S
C1221      C1222   1.414       .  A
C1222      F1225   1.357       .  S
C1223      C1226   1.407       .  A
C1223      C1230   1.401       .  A
C1226      C1227   1.405       .  A
C1226      F1231   1.357       .  S
C1227      C1228   1.410       .  A
C1227      F1233   1.357       .  S
C1228      C1229   1.415       .  A
C1229      C1230   1.397       .  A
C1229      F1232   1.359       .  S
C1230      F1234   1.358       .  S
C1237      C1238   1.401       .  A
C1237      C1242   1.397       .  A
C1237      F1255   1.358       .  S
C1238      C1243   1.473       .  S
C1238      C1239   1.402       .  A
C1239      C1240   1.396       .  A
C1239      F1244   1.358       .  S
C1240      C1241   1.411       .  A
C1240      F1256   1.358       .  S
C1241      C1242   1.414       .  A
C1242      F1245   1.358       .  S
C1243      C1246   1.402       .  A
C1243      C1250   1.400       .  A
C1246      C1247   1.398       .  A
C1246      F1251   1.358       .  S
C1247      C1248   1.412       .  A
C1247      F1253   1.358       .  S
C1248      C1249   1.414       .  A
C1249      C1250   1.395       .  A
C1249      F1252   1.358       .  S
C1250      F1254   1.358       .  S
C1257      C1258   1.410       .  A
C1257      C1262   1.408       .  A
C1257      F1275   1.357       .  S
C1258      C1263   1.496       .  S
C1258      C1259   1.404       .  A
C1259      C1260   1.401       .  A
C1259      F1264   1.358       .  S
C1260      C1261   1.416       .  A
C1260      F1276   1.358       .  S
C1261      C1262   1.409       .  A
C1262      F1265   1.357       .  S
C1263      C1266   1.406       .  A
C1263      C1270   1.410       .  A
C1266      C1267   1.402       .  A
C1266      F1271   1.358       .  S
C1267      C1268   1.411       .  A
C1267      F1273   1.358       .  S
C1268      C1269   1.408       .  A
C1269      C1270   1.406       .  A
C1269      F1272   1.358       .  S
C1270      F1274   1.358       .  S
C1277      C1278   1.408       .  A
C1277      C1282   1.403       .  A
C1277      F1295   1.358       .  S
C1278      C1283   1.487       .  S
C1278      C1279   1.403       .  A
C1279      C1280   1.396       .  A
C1279      F1284   1.358       .  S
C1280      C1281   1.414       .  A
C1280      F1296   1.358       .  S
C1281      C1282   1.411       .  A
C1282      F1285   1.358       .  S
C1283      C1286   1.406       .  A
C1283      C1290   1.408       .  A
C1286      C1287   1.401       .  A
C1286      F1291   1.358       .  S
C1287      C1288   1.409       .  A
C1287      F1293   1.358       .  S
C1288      C1289   1.406       .  A
C1289      C1290   1.400       .  A
C1289      F1292   1.358       .  S
C1290      F1294   1.358       .  S
C1297      C1298   1.404       .  A
C1297      C1302   1.402       .  A
C1297      F1315   1.358       .  S
C1298      C1303   1.475       .  S
C1298      C1299   1.402       .  A
C1299      C1300   1.396       .  A
C1299      F1304   1.358       .  S
C1300      C1301   1.410       .  A
C1300      F1316   1.358       .  S
C1301      C1302   1.408       .  A
C1302      F1305   1.357       .  S
C1303      C1306   1.405       .  A
C1303      C1310   1.399       .  A
C1306      C1307   1.404       .  A
C1306      F1311   1.357       .  S
C1307      C1308   1.409       .  A
C1307      F1313   1.358       .  S
C1308      C1309   1.412       .  A
C1309      C1310   1.393       .  A
C1309      F1312   1.358       .  S
C1310      F1314   1.358       .  S
C1317      C1318   1.406       .  A
C1317      C1322   1.404   1_545  A
C1317      F1335   1.358       .  S
C1318      C1323   1.477       .  S
C1318      C1319   1.400       .  A
C1319      C1320   1.389   1_545  A
C1319      F1324   1.359       .  S
C1320      C1321   1.413       .  A
C1320      F1336   1.358       .  S
C1321      C1322   1.411       .  A
C1322      F1325   1.357       .  S
C1323      C1326   1.406       .  A
C1323      C1330   1.402       .  A
C1326      C1327   1.404       .  A
C1326      F1331   1.358       .  S
C1327      C1328   1.412       .  A
C1327      F1333   1.358       .  S
C1328      C1329   1.410       .  A
C1329      C1330   1.388       .  A
C1329      F1332   1.358       .  S
C1330      F1334   1.359       .  S
C1337      C1338   1.409       .  A
C1337      C1342   1.402       .  A
C1337      F1355   1.358       .  S
C1338      C1343   1.482       .  S
C1338      C1339   1.402       .  A
C1339      C1340   1.394       .  A
C1339      F1344   1.358       .  S
C1340      C1341   1.411       .  A
C1340      F1356   1.359       .  S
C1341      C1342   1.405       .  A
C1342      F1345   1.358       .  S
C1343      C1346   1.407       .  A
C1343      C1350   1.402       .  A
C1346      C1347   1.401       .  A
C1346      F1351   1.358       .  S
C1347      C1348   1.409       .  A
C1347      F1353   1.358       .  S
C1348      C1349   1.413       .  A
C1349      C1350   1.395       .  A
C1349      F1352   1.358       .  S
C1350      F1354   1.358       .  S
C1357      C1358   1.406       .  A
C1357      C1362   1.400       .  A
C1357      F1375   1.358       .  S
C1358      C1363   1.480       .  S
C1358      C1359   1.403       .  A
C1359      C1360   1.398       .  A
C1359      F1364   1.358       .  S
C1360      C1361   1.409       .  A
C1360      F1376   1.358       .  S
C1361      C1362   1.407       .  A
C1362      F1365   1.358       .  S
C1363      C1366   1.401       .  A
C1363      C1370   1.407       .  A
C1366      C1367   1.395       .  A
C1366      F1371   1.358       .  S
C1367      C1368   1.415       .  A
C1367      F1373   1.358       .  S
C1368      C1369   1.409       .  A
C1369      C1370   1.402       .  A
C1369      F1372   1.357       .  S
C1370      F1374   1.358       .  S
C1377      C1378   1.410       .  A
C1377      C1382   1.406       .  A
C1377      F1395   1.358       .  S
C1378      C1383   1.489       .  S
C1378      C1379   1.402       .  A
C1379      C1380   1.398       .  A
C1379      F1384   1.358       .  S
C1380      C1381   1.414       .  A
C1380      F1396   1.358       .  S
C1381      C1382   1.407       .  A
C1382      F1385   1.357       .  S
C1383      C1386   1.404       .  A
C1383      C1390   1.408       .  A
C1386      C1387   1.400       .  A
C1386      F1391   1.358       .  S
C1387      C1388   1.413       .  A
C1387      F1393   1.358       .  S
C1388      C1389   1.409       .  A
C1389      C1390   1.404       .  A
C1389      F1392   1.357       .  S
C1390      F1394   1.358       .  S
C1397      C1398   1.405       .  A
C1397      C1402   1.402       .  A
C1397      F1415   1.358       .  S
C1398      C1403   1.481       .  S
C1398      C1399   1.404       .  A
C1399      C1400   1.398       .  A
C1399      F1404   1.358       .  S
C1400      C1401   1.409       .  A
C1400      F1416   1.358       .  S
C1401      C1402   1.409       .  A
C1402      F1405   1.358       .  S
C1403      C1406   1.401       .  A
C1403      C1410   1.404       .  A
C1406      C1407   1.397       .  A
C1406      F1411   1.358       .  S
C1407      C1408   1.416       .  A
C1407      F1413   1.358       .  S
C1408      C1409   1.411       .  A
C1409      C1410   1.403       .  A
C1409      F1412   1.357       .  S
C1410      F1414   1.358       .  S
C1417      C1418   1.400       .  A
C1417      C1422   1.398       .  A
C1417      F1435   1.358       .  S
C1418      C1423   1.480       .  S
C1418      C1419   1.403       .  A
C1419      C1420   1.405       .  A
C1419      F1424   1.358       .  S
C1420      C1421   1.415       .  A
C1420      F1436   1.358       .  S
C1421      C1422   1.414       .  A
C1422      F1425   1.358       .  S
C1423      C1426   1.399       .  A
C1423      C1430   1.404       .  A
C1426      C1427   1.398       .  A
C1426      F1431   1.358       .  S
C1427      C1428   1.416       .  A
C1427      F1433   1.357       .  S
C1428      C1429   1.414       .  A
C1429      C1430   1.405       .  A
C1429      F1432   1.358       .  S
C1430      F1434   1.358       .  S
C1437      C1438   1.406       .  A
C1437      C1442   1.401       .  A
C1437      F1455   1.358       .  S
C1438      C1443   1.475       .  S
C1438      C1439   1.399       .  A
C1439      C1440   1.390       .  A
C1439      F1444   1.359       .  S
C1440      C1441   1.415       .  A
C1440      F1456   1.358       .  S
C1441      C1442   1.410       .  A
C1442      F1445   1.358       .  S
C1443      C1446   1.404   1_565  A
C1443      C1450   1.404   1_565  A
C1446      C1447   1.397       .  A
C1446      F1451   1.358   1_545  S
C1447      C1448   1.406       .  A
C1447      F1453   1.358       .  S
C1448      C1449   1.408       .  A
C1449      C1450   1.396       .  A
C1449      F1452   1.358       .  S
C1450      F1454   1.358   1_545  S
C1457      C1458   1.401       .  A
C1457      C1462   1.392       .  A
C1457      F1475   1.358       .  S
C1458      C1463   1.482       .  S
C1458      C1459   1.410       .  A
C1459      C1460   1.402       .  A
C1459      F1464   1.358       .  S
C1460      C1461   1.405       .  A
C1460      F1476   1.357       .  S
C1461      C1462   1.414       .  A
C1462      F1465   1.359       .  S
C1463      C1466   1.401       .  A
C1463      C1470   1.409       .  A
C1466      C1467   1.394       .  A
C1466      F1471   1.358       .  S
C1467      C1468   1.414       .  A
C1467      F1473   1.358       .  S
C1468      C1469   1.408       .  A
C1469      C1470   1.401       .  A
C1469      F1472   1.358       .  S
C1470      F1474   1.358       .  S
C1477      C1478   1.407       .  A
C1477      C1482   1.407       .  A
C1477      F1495   1.357       .  S
C1478      C1483   1.485       .  S
C1478      C1479   1.401       .  A
C1479      C1480   1.396       .  A
C1479      F1484   1.358       .  S
C1480      C1481   1.416       .  A
C1480      F1496   1.358       .  S
C1481      C1482   1.412       .  A
C1482      F1485   1.357       .  S
C1483      C1486   1.406       .  A
C1483      C1490   1.403       .  A
C1486      C1487   1.406       .  A
C1486      F1491   1.357       .  S
C1487      C1488   1.410       .  A
C1487      F1493   1.357       .  S
C1488      C1489   1.412       .  A
C1489      C1490   1.397       .  A
C1489      F1492   1.358       .  S
C1490      F1494   1.358       .  S
C1497      C1498   1.399       .  A
C1497      C1502   1.394       .  A
C1497      F1515   1.358       .  S
C1498      C1503   1.472       .  S
C1498      C1499   1.404       .  A
C1499      C1500   1.402       .  A
C1499      F1504   1.358       .  S
C1500      C1501   1.408       .  A
C1500      F1516   1.357       .  S
C1501      C1502   1.413       .  A
C1502      F1505   1.358       .  S
C1503      C1506   1.400       .  A
C1503      C1510   1.403       .  A
C1506      C1507   1.393       .  A
C1506      F1511   1.358       .  S
C1507      C1508   1.409       .  A
C1507      F1513   1.358       .  S
C1508      C1509   1.409       .  A
C1509      C1510   1.403       .  A
C1509      F1512   1.357       .  S
C1510      F1514   1.357       .  S
C1517      C1518   1.406       .  A
C1517      C1522   1.402       .  A
C1517      F1535   1.358       .  S
C1518      C1523   1.489       .  S
C1518      C1519   1.408       .  A
C1519      C1520   1.402       .  A
C1519      F1524   1.358       .  S
C1520      C1521   1.407       .  A
C1520      F1536   1.358       .  S
C1521      C1522   1.409       .  A
C1522      F1525   1.358       .  S
C1523      C1526   1.408       .  A
C1523      C1530   1.405       .  A
C1526      C1527   1.405       .  A
C1526      F1531   1.358       .  S
C1527      C1528   1.409       .  A
C1527      F1533   1.358       .  S
C1528      C1529   1.411       .  A
C1529      C1530   1.400       .  A
C1529      F1532   1.358       .  S
C1530      F1534   1.358       .  S
C1537      C1538   1.402       .  A
C1537      C1542   1.398       .  A
C1537      F1555   1.358   1_565  S
C1538      C1543   1.482       .  S
C1538      C1539   1.405       .  A
C1539      C1540   1.404       .  A
C1539      F1544   1.358       .  S
C1540      C1541   1.412       .  A
C1540      F1556   1.358       .  S
C1541      C1542   1.412       .  A
C1542      F1545   1.358   1_565  S
C1543      C1546   1.405       .  A
C1543      C1550   1.404       .  A
C1546      C1547   1.402       .  A
C1546      F1551   1.358       .  S
C1547      C1548   1.408       .  A
C1547      F1553   1.358       .  S
C1548      C1549   1.410       .  A
C1549      C1550   1.400       .  A
C1549      F1552   1.358       .  S
C1550      F1554   1.358       .  S
C1557      C1558   1.404       .  A
C1557      C1562   1.399       .  A
C1557      F1575   1.358       .  S
C1558      C1563   1.480       .  S
C1558      C1559   1.404       .  A
C1559      C1560   1.400       .  A
C1559      F1564   1.358       .  S
C1560      C1561   1.410       .  A
C1560      F1576   1.358       .  S
C1561      C1562   1.410       .  A
C1562      F1565   1.358       .  S
C1563      C1566   1.404       .  A
C1563      C1570   1.402       .  A
C1566      C1567   1.401       .  A
C1566      F1571   1.358       .  S
C1567      C1568   1.413       .  A
C1567      F1573   1.358       .  S
C1568      C1569   1.414       .  A
C1569      C1570   1.397       .  A
C1569      F1572   1.358       .  S
C1570      F1574   1.358       .  S
C1577      C1578   1.407       .  A
C1577      C1582   1.401       .  A
C1577      F1595   1.358       .  S
C1578      C1583   1.479       .  S
C1578      C1579   1.401       .  A
C1579      C1580   1.396       .  A
C1579      F1584   1.358       .  S
C1580      C1581   1.412       .  A
C1580      F1596   1.358       .  S
C1581      C1582   1.407       .  A
C1582      F1585   1.357       .  S
C1583      C1586   1.401       .  A
C1583      C1590   1.405       .  A
C1586      C1587   1.393       .  A
C1586      F1591   1.358       .  S
C1587      C1588   1.413       .  A
C1587      F1593   1.358       .  S
C1588      C1589   1.413       .  A
C1589      C1590   1.403       .  A
C1589      F1592   1.358       .  S
C1590      F1594   1.358       .  S
C1597      C1598   1.405       .  A
C1597      C1602   1.403       .  A
C1597      F1615   1.357       .  S
C1598      C1603   1.472       .  S
C1598      C1599   1.398       .  A
C1599      C1600   1.393       .  A
C1599      F1604   1.358       .  S
C1600      C1601   1.414       .  A
C1600      F1616   1.359       .  S
C1601      C1602   1.408       .  A
C1602      F1605   1.357       .  S
C1603      C1606   1.401       .  A
C1603      C1610   1.401       .  A
C1606      C1607   1.398       .  A
C1606      F1611   1.358       .  S
C1607      C1608   1.412       .  A
C1607      F1613   1.358       .  S
C1608      C1609   1.411       .  A
C1609      C1610   1.398       .  A
C1609      F1612   1.358       .  S
C1610      F1614   1.358       .  S
C1617      C1618   1.407       .  A
C1617      C1622   1.402       .  A
C1617      F1635   1.358       .  S
C1618      C1623   1.487   1_556  S
C1618      C1619   1.407       .  A
C1619      C1620   1.400       .  A
C1619      F1624   1.358       .  S
C1620      C1621   1.408       .  A
C1620      F1636   1.358       .  S
C1621      C1622   1.408       .  A
C1622      F1625   1.358       .  S
C1623      C1626   1.405       .  A
C1623      C1630   1.404       .  A
C1626      C1627   1.404       .  A
C1626      F1631   1.358       .  S
C1627      C1628   1.414       .  A
C1627      F1633   1.358       .  S
C1628      C1629   1.412       .  A
C1629      C1630   1.398       .  A
C1629      F1632   1.358       .  S
C1630      F1634   1.358       .  S
C1637      C1638   1.403       .  A
C1637      C1642   1.397       .  A
C1637      F1655   1.358       .  S
C1638      C1643   1.484       .  S
C1638      C1639   1.407       .  A
C1639      C1640   1.402       .  A
C1639      F1644   1.358       .  S
C1640      C1641   1.409       .  A
C1640      F1656   1.358       .  S
C1641      C1642   1.412       .  A
C1642      F1645   1.358       .  S
C1643      C1646   1.406       .  A
C1643      C1650   1.404       .  A
C1646      C1647   1.401       .  A
C1646      F1651   1.358       .  S
C1647      C1648   1.410       .  A
C1647      F1653   1.358       .  S
C1648      C1649   1.412       .  A
C1649      C1650   1.398       .  A
C1649      F1652   1.358       .  S
C1650      F1654   1.358       .  S
C1657      C1658   1.404       .  A
C1657      C1662   1.398       .  A
C1657      F1675   1.358       .  S
C1658      C1663   1.483   1_556  S
C1658      C1659   1.406       .  A
C1659      C1660   1.398       .  A
C1659      F1664   1.358       .  S
C1660      C1661   1.409       .  A
C1660      F1676   1.358       .  S
C1661      C1662   1.412       .  A
C1662      F1665   1.358       .  S
C1663      C1666   1.405       .  A
C1663      C1670   1.407       .  A
C1666      C1667   1.397       .  A
C1666      F1671   1.358   1_545  S
C1667      C1668   1.408       .  A
C1667      F1673   1.358   1_545  S
C1668      C1669   1.408       .  A
C1669      C1670   1.400       .  A
C1669      F1672   1.358       .  S
C1670      F1674   1.358       .  S
C1677      C1678   1.404       .  A
C1677      C1682   1.396       .  A
C1677      F1695   1.358       .  S
C1678      C1683   1.477       .  S
C1678      C1679   1.402       .  A
C1679      C1680   1.397       .  A
C1679      F1684   1.358       .  S
C1680      C1681   1.414       .  A
C1680      F1696   1.358       .  S
C1681      C1682   1.411       .  A
C1682      F1685   1.358       .  S
C1683      C1686   1.408       .  A
C1683      C1690   1.401       .  A
C1686      C1687   1.403       .  A
C1686      F1691   1.358       .  S
C1687      C1688   1.407       .  A
C1687      F1693   1.358       .  S
C1688      C1689   1.409       .  A
C1689      C1690   1.390       .  A
C1689      F1692   1.358       .  S
C1690      F1694   1.358       .  S
C1697      C1698   1.402       .  A
C1697      C1702   1.401       .  A
C1697      F1715   1.358       .  S
C1698      C1703   1.472       .  S
C1698      C1699   1.399       .  A
C1699      C1700   1.394       .  A
C1699      F1704   1.358       .  S
C1700      C1701   1.413       .  A
C1700      F1716   1.358       .  S
C1701      C1702   1.412       .  A
C1702      F1705   1.358       .  S
C1703      C1706   1.405       .  A
C1703      C1710   1.398       .  A
C1706      C1707   1.403       .  A
C1706      F1711   1.357       .  S
C1707      C1708   1.408       .  A
C1707      F1713   1.357       .  S
C1708      C1709   1.412       .  A
C1709      C1710   1.392       .  A
C1709      F1712   1.359       .  S
C1710      F1714   1.358       .  S
C1717      C1718   1.403   1_545  A
C1717      C1722   1.399   1_545  A
C1717      F1735   1.358       .  S
C1718      C1723   1.477   1_565  S
C1718      C1719   1.403       .  A
C1719      C1720   1.395       .  A
C1719      F1724   1.358       .  S
C1720      C1721   1.410       .  A
C1720      F1736   1.358       .  S
C1721      C1722   1.412       .  A
C1722      F1725   1.358       .  S
C1723      C1726   1.404       .  A
C1723      C1730   1.402   1_545  A
C1726      C1727   1.399       .  A
C1726      F1731   1.358       .  S
C1727      C1728   1.410       .  A
C1727      F1733   1.358       .  S
C1728      C1729   1.411   1_545  A
C1729      C1730   1.395       .  A
C1729      F1732   1.358       .  S
C1730      F1734   1.358       .  S
C1737      C1738   1.403       .  A
C1737      C1742   1.397       .  A
C1737      F1755   1.358   1_565  S
C1738      C1743   1.477   1_556  S
C1738      C1739   1.403       .  A
C1739      C1740   1.397       .  A
C1739      F1744   1.358       .  S
C1740      C1741   1.411       .  A
C1740      F1756   1.358       .  S
C1741      C1742   1.410       .  A
C1742      F1745   1.358   1_565  S
C1743      C1746   1.405   1_565  A
C1743      C1750   1.403       .  A
C1746      C1747   1.399       .  A
C1746      F1751   1.358       .  S
C1747      C1748   1.408   1_545  A
C1747      F1753   1.358       .  S
C1748      C1749   1.409       .  A
C1749      C1750   1.397       .  A
C1749      F1752   1.358       .  S
C1750      F1754   1.358       .  S
C1757      C1758   1.404       .  A
C1757      C1762   1.398       .  A
C1757      F1775   1.358       .  S
C1758      C1763   1.489   1_655  S
C1758      C1759   1.408   1_545  A
C1759      C1760   1.404       .  A
C1759      F1764   1.358       .  S
C1760      C1761   1.410       .  A
C1760      F1776   1.357       .  S
C1761      C1762   1.415   1_565  A
C1762      F1765   1.358       .  S
C1763      C1766   1.408       .  A
C1763      C1770   1.407       .  A
C1766      C1767   1.399       .  A
C1766      F1771   1.358       .  S
C1767      C1768   1.406       .  A
C1767      F1773   1.358       .  S
C1768      C1769   1.407       .  A
C1769      C1770   1.401       .  A
C1769      F1772   1.358       .  S
C1770      F1774   1.358       .  S
C1777      C1778   1.405   1_556  A
C1777      C1782   1.401       .  A
C1777      F1795   1.358   1_556  S
C1778      C1783   1.483       .  S
C1778      C1779   1.404   1_554  A
C1779      C1780   1.398       .  A
C1779      F1784   1.358   1_556  S
C1780      C1781   1.410       .  A
C1780      F1796   1.358       .  S
C1781      C1782   1.411       .  A
C1782      F1785   1.358       .  S
C1783      C1786   1.404       .  A
C1783      C1790   1.404       .  A
C1786      C1787   1.400       .  A
C1786      F1791   1.358       .  S
C1787      C1788   1.413       .  A
C1787      F1793   1.358       .  S
C1788      C1789   1.413       .  A
C1789      C1790   1.398       .  A
C1789      F1792   1.358       .  S
C1790      F1794   1.358       .  S
C1797      C1798   1.408       .  A
C1797      C1802   1.405       .  A
C1797      F1815   1.357       .  S
C1798      C1803   1.475       .  S
C1798      C1799   1.398       .  A
C1799      C1800   1.393       .  A
C1799      F1804   1.358       .  S
C1800      C1801   1.411       .  A
C1800      F1816   1.359       .  S
C1801      C1802   1.405       .  A
C1802      F1805   1.357       .  S
C1803      C1806   1.401       .  A
C1803      C1810   1.403       .  A
C1806      C1807   1.397       .  A
C1806      F1811   1.358       .  S
C1807      C1808   1.410       .  A
C1807      F1813   1.358       .  S
C1808      C1809   1.410       .  A
C1809      C1810   1.400       .  A
C1809      F1812   1.358       .  S
C1810      F1814   1.358       .  S
C1817      C1818   1.410       .  A
C1817      C1822   1.407       .  A
C1817      F1835   1.358       .  S
C1818      C1823   1.490       .  S
C1818      C1819   1.405       .  A
C1819      C1820   1.393       .  A
C1819      F1824   1.358       .  S
C1820      C1821   1.410       .  A
C1820      F1836   1.359       .  S
C1821      C1822   1.409       .  A
C1822      F1825   1.357       .  S
C1823      C1826   1.404       .  A
C1823      C1830   1.408       .  A
C1826      C1827   1.394       .  A
C1826      F1831   1.358       .  S
C1827      C1828   1.414       .  A
C1827      F1833   1.358       .  S
C1828      C1829   1.412       .  A
C1829      C1830   1.406       .  A
C1829      F1832   1.357       .  S
C1830      F1834   1.357       .  S
C1837      C1838   1.408       .  A
C1837      C1842   1.403       .  A
C1837      F1855   1.358       .  S
C1838      C1843   1.481   1_455  S
C1838      C1839   1.403       .  A
C1839      C1840   1.396       .  A
C1839      F1844   1.358       .  S
C1840      C1841   1.408       .  A
C1840      F1856   1.358       .  S
C1841      C1842   1.406       .  A
C1842      F1845   1.358       .  S
C1843      C1846   1.405       .  A
C1843      C1850   1.403       .  A
C1846      C1847   1.399       .  A
C1846      F1851   1.358       .  S
C1847      C1848   1.409       .  A
C1847      F1853   1.358       .  S
C1848      C1849   1.413       .  A
C1849      C1850   1.400       .  A
C1849      F1852   1.358       .  S
C1850      F1854   1.358       .  S
C1857      C1858   1.403       .  A
C1857      C1862   1.397       .  A
C1857      F1875   1.358       .  S
C1858      C1863   1.477       .  S
C1858      C1859   1.403       .  A
C1859      C1860   1.398       .  A
C1859      F1864   1.358       .  S
C1860      C1861   1.410       .  A
C1860      F1876   1.358       .  S
C1861      C1862   1.411       .  A
C1862      F1865   1.358       .  S
C1863      C1866   1.403       .  A
C1863      C1870   1.402       .  A
C1866      C1867   1.398       .  A
C1866      F1871   1.358       .  S
C1867      C1868   1.413       .  A
C1867      F1873   1.358       .  S
C1868      C1869   1.412       .  A
C1869      C1870   1.396       .  A
C1869      F1872   1.358       .  S
C1870      F1874   1.358       .  S
C1877      C1878   1.401       .  A
C1877      C1882   1.396       .  A
C1877      F1895   1.358       .  S
C1878      C1883   1.483   1_455  S
C1878      C1879   1.407       .  A
C1879      C1880   1.403       .  A
C1879      F1884   1.358       .  S
C1880      C1881   1.410       .  A
C1880      F1896   1.357       .  S
C1881      C1882   1.414       .  A
C1882      F1885   1.358       .  S
C1883      C1886   1.407       .  A
C1883      C1890   1.405       .  A
C1886      C1887   1.400       .  A
C1886      F1891   1.358       .  S
C1887      C1888   1.407       .  A
C1887      F1893   1.358       .  S
C1888      C1889   1.407       .  A
C1889      C1890   1.399       .  A
C1889      F1892   1.358       .  S
C1890      F1894   1.358       .  S
C1897      C1898   1.404       .  A
C1897      C1902   1.399       .  A
C1897      F1915   1.358       .  S
C1898      C1903   1.486       .  S
C1898      C1899   1.406       .  A
C1899      C1900   1.400       .  A
C1899      F1904   1.358       .  S
C1900      C1901   1.411       .  A
C1900      F1916   1.358       .  S
C1901      C1902   1.413       .  A
C1902      F1905   1.358       .  S
C1903      C1906   1.408       .  A
C1903      C1910   1.405       .  A
C1906      C1907   1.402       .  A
C1906      F1911   1.358       .  S
C1907      C1908   1.408       .  A
C1907      F1913   1.358       .  S
C1908      C1909   1.410       .  A
C1909      C1910   1.396       .  A
C1909      F1912   1.358       .  S
C1910      F1914   1.358       .  S
C1917      C1918   1.405       .  A
C1917      C1922   1.395       .  A
C1917      F1935   1.358   1_545  S
C1918      C1923   1.476       .  S
C1918      C1919   1.405       .  A
C1919      C1920   1.396       .  A
C1919      F1924   1.358       .  S
C1920      C1921   1.408       .  A
C1920      F1936   1.358       .  S
C1921      C1922   1.407       .  A
C1922      F1925   1.358   1_545  S
C1923      C1926   1.404       .  A
C1923      C1930   1.403       .  A
C1926      C1927   1.397       .  A
C1926      F1931   1.358       .  S
C1927      C1928   1.411       .  A
C1927      F1933   1.358       .  S
C1928      C1929   1.411       .  A
C1929      C1930   1.394       .  A
C1929      F1932   1.358       .  S
C1930      F1934   1.358       .  S
C1937      C1938   1.405       .  A
C1937      C1942   1.400       .  A
C1937      F1955   1.358       .  S
C1938      C1943   1.476       .  S
C1938      C1939   1.401       .  A
C1939      C1940   1.393       .  A
C1939      F1944   1.358       .  S
C1940      C1941   1.411       .  A
C1940      F1956   1.358       .  S
C1941      C1942   1.409       .  A
C1942      F1945   1.358       .  S
C1943      C1946   1.403       .  A
C1943      C1950   1.403       .  A
C1946      C1947   1.395       .  A
C1946      F1951   1.358       .  S
C1947      C1948   1.410       .  A
C1947      F1953   1.358       .  S
C1948      C1949   1.411       .  A
C1949      C1950   1.399       .  A
C1949      F1952   1.358       .  S
C1950      F1954   1.358       .  S
C1957      C1958   1.401       .  A
C1957      C1962   1.395       .  A
C1957      F1975   1.358       .  S
C1958      C1963   1.475       .  S
C1958      C1959   1.406       .  A
C1959      C1960   1.399       .  A
C1959      F1964   1.358       .  S
C1960      C1961   1.407       .  A
C1960      F1976   1.358       .  S
C1961      C1962   1.410       .  A
C1962      F1965   1.358       .  S
C1963      C1966   1.401       .  A
C1963      C1970   1.408       .  A
C1966      C1967   1.392       .  A
C1966      F1971   1.358       .  S
C1967      C1968   1.407       .  A
C1967      F1973   1.359       .  S
C1968      C1969   1.403       .  A
C1969      C1970   1.401       .  A
C1969      F1972   1.358       .  S
C1970      F1974   1.358       .  S
C1977      C1978   1.402   1_545  A
C1977      C1982   1.394       .  A
C1977      F1995   1.358       .  S
C1978      C1983   1.479   1_465  S
C1978      C1979   1.404       .  A
C1979      C1980   1.401       .  A
C1979      F1984   1.358       .  S
C1980      C1981   1.412       .  A
C1980      F1996   1.358       .  S
C1981      C1982   1.413   1_565  A
C1982      F1985   1.358       .  S
C1983      C1986   1.402       .  A
C1983      C1990   1.406       .  A
C1986      C1987   1.393       .  A
C1986      F1991   1.358   1_545  S
C1987      C1988   1.409       .  A
C1987      F1993   1.358       .  S
C1988      C1989   1.409       .  A
C1989      C1990   1.402       .  A
C1989      F1992   1.358       .  S
C1990      F1994   1.358       .  S
C1997      C1998   1.402   1_545  A
C1997      C2002   1.396   1_545  A
C1997      F2015   1.358       .  S
C1998      C2003   1.477   1_565  S
C1998      C1999   1.403       .  A
C1999      C2000   1.399       .  A
C1999      F2004   1.358       .  S
C2000      C2001   1.412       .  A
C2000      F2016   1.358       .  S
C2001      C2002   1.412       .  A
C2002      F2005   1.358   1_565  S
C2003      C2006   1.404       .  A
C2003      C2010   1.401   1_545  A
C2006      C2007   1.399       .  A
C2006      F2011   1.358       .  S
C2007      C2008   1.411       .  A
C2007      F2013   1.358       .  S
C2008      C2009   1.414   1_545  A
C2009      C2010   1.395       .  A
C2009      F2012   1.358       .  S
C2010      F2014   1.358       .  S
C2017      C2018   1.405       .  A
C2017      C2022   1.399       .  A
C2017      F2035   1.358       .  S
C2018      C2023   1.482       .  S
C2018      C2019   1.406       .  A
C2019      C2020   1.399       .  A
C2019      F2024   1.358       .  S
C2020      C2021   1.407       .  A
C2020      F2036   1.358       .  S
C2021      C2022   1.409       .  A
C2022      F2025   1.358       .  S
C2023      C2026   1.405       .  A
C2023      C2030   1.404       .  A
C2026      C2027   1.399       .  A
C2026      F2031   1.358       .  S
C2027      C2028   1.410       .  A
C2027      F2033   1.358       .  S
C2028      C2029   1.410       .  A
C2029      C2030   1.399       .  A
C2029      F2032   1.358       .  S
C2030      F2034   1.358       .  S
C2037      C2038   1.409       .  A
C2037      C2042   1.407       .  A
C2037      F2055   1.358       .  S
C2038      C2043   1.486       .  S
C2038      C2039   1.402       .  A
C2039      C2040   1.393       .  A
C2039      F2044   1.359       .  S
C2040      C2041   1.412       .  A
C2040      F2056   1.359       .  S
C2041      C2042   1.409       .  A
C2042      F2045   1.357       .  S
C2043      C2046   1.407       .  A
C2043      C2050   1.404       .  A
C2046      C2047   1.405       .  A
C2046      F2051   1.358       .  S
C2047      C2048   1.412       .  A
C2047      F2053   1.358       .  S
C2048      C2049   1.411       .  A
C2049      C2050   1.395       .  A
C2049      F2052   1.358       .  S
C2050      F2054   1.358       .  S
C2057      C2058   1.406       .  A
C2057      C2062   1.400       .  A
C2057      F2075   1.358       .  S
C2058      C2063   1.488       .  S
C2058      C2059   1.406       .  A
C2059      C2060   1.401       .  A
C2059      F2064   1.358       .  S
C2060      C2061   1.412       .  A
C2060      F2076   1.358       .  S
C2061      C2062   1.412       .  A
C2062      F2065   1.358       .  S
C2063      C2066   1.407       .  A
C2063      C2070   1.407       .  A
C2066      C2067   1.401       .  A
C2066      F2071   1.358       .  S
C2067      C2068   1.408       .  A
C2067      F2073   1.358       .  S
C2068      C2069   1.408       .  A
C2069      C2070   1.400       .  A
C2069      F2072   1.358       .  S
C2070      F2074   1.358       .  S
C2077      C2078   1.406       .  A
C2077      C2082   1.404       .  A
C2077      F2095   1.358       .  S
C2078      C2083   1.478       .  S
C2078      C2079   1.400       .  A
C2079      C2080   1.392       .  A
C2079      F2084   1.358       .  S
C2080      C2081   1.412       .  A
C2080      F2096   1.358       .  S
C2081      C2082   1.411       .  A
C2082      F2085   1.358       .  S
C2083      C2086   1.401       .  A
C2083      C2090   1.405       .  A
C2086      C2087   1.393       .  A
C2086      F2091   1.358       .  S
C2087      C2088   1.413       .  A
C2087      F2093   1.358       .  S
C2088      C2089   1.412       .  A
C2089      C2090   1.403       .  A
C2089      F2092   1.358       .  S
C2090      F2094   1.358       .  S
C2097      C2098   1.405       .  A
C2097      C2102   1.403   1_545  A
C2097      F2115   1.357       .  S
C2098      C2103   1.471       .  S
C2098      C2099   1.398       .  A
C2099      C2100   1.393   1_545  A
C2099      F2104   1.358       .  S
C2100      C2101   1.412       .  A
C2100      F2116   1.359       .  S
C2101      C2102   1.408       .  A
C2102      F2105   1.357       .  S
C2103      C2106   1.398       .  A
C2103      C2110   1.403       .  A
C2106      C2107   1.394       .  A
C2106      F2111   1.358       .  S
C2107      C2108   1.413       .  A
C2107      F2113   1.358       .  S
C2108      C2109   1.412       .  A
C2109      C2110   1.402       .  A
C2109      F2112   1.358       .  S
C2110      F2114   1.358       .  S
C2117      C2118   1.409       .  A
C2117      C2122   1.407       .  A
C2117      F2135   1.358       .  S
C2118      C2123   1.493       .  S
C2118      C2119   1.403       .  A
C2119      C2120   1.398       .  A
C2119      F2124   1.358       .  S
C2120      C2121   1.415       .  A
C2120      F2136   1.358       .  S
C2121      C2122   1.412       .  A
C2122      F2125   1.357       .  S
C2123      C2126   1.411       .  A
C2123      C2130   1.405       .  A
C2126      C2127   1.405       .  A
C2126      F2131   1.357       .  S
C2127      C2128   1.404       .  A
C2127      F2133   1.357       .  S
C2128      C2129   1.411       .  A
C2129      C2130   1.401       .  A
C2129      F2132   1.359       .  S
C2130      F2134   1.358       .  S
C2137      C2138   1.405       .  A
C2137      C2142   1.395       .  A
C2137      F2155   1.358       .  S
C2138      C2143   1.479   1_556  S
C2138      C2139   1.405       .  A
C2139      C2140   1.399       .  A
C2139      F2144   1.358       .  S
C2140      C2141   1.408       .  A
C2140      F2156   1.358       .  S
C2141      C2142   1.406       .  A
C2142      F2145   1.358       .  S
C2143      C2146   1.404       .  A
C2143      C2150   1.404       .  A
C2146      C2147   1.396       .  A
C2146      F2151   1.358       .  S
C2147      C2148   1.410       .  A
C2147      F2153   1.358       .  S
C2148      C2149   1.412       .  A
C2149      C2150   1.399       .  A
C2149      F2152   1.358       .  S
C2150      F2154   1.358       .  S
C2157      C2158   1.412       .  A
C2157      C2162   1.405       .  A
C2157      F2175   1.357       .  S
C2158      C2163   1.487       .  S
C2158      C2159   1.404       .  A
C2159      C2160   1.395       .  A
C2159      F2164   1.358       .  S
C2160      C2161   1.408       .  A
C2160      F2176   1.359       .  S
C2161      C2162   1.403       .  A
C2162      F2165   1.357       .  S
C2163      C2166   1.402       .  A
C2163      C2170   1.409       .  A
C2166      C2167   1.398       .  A
C2166      F2171   1.358       .  S
C2167      C2168   1.416       .  A
C2167      F2173   1.358       .  S
C2168      C2169   1.410       .  A
C2169      C2170   1.402       .  A
C2169      F2172   1.358       .  S
C2170      F2174   1.358       .  S
C2177      C2178   1.402       .  A
C2177      C2182   1.403       .  A
C2177      F2195   1.358       .  S
C2178      C2183   1.478       .  S
C2178      C2179   1.400       .  A
C2179      C2180   1.397       .  A
C2179      F2184   1.358       .  S
C2180      C2181   1.413       .  A
C2180      F2196   1.357       .  S
C2181      C2182   1.416       .  A
C2182      F2185   1.358       .  S
C2183      C2186   1.401       .  A
C2183      C2190   1.403       .  A
C2186      C2187   1.397       .  A
C2186      F2191   1.358       .  S
C2187      C2188   1.414       .  A
C2187      F2193   1.358       .  S
C2188      C2189   1.414       .  A
C2189      C2190   1.402       .  A
C2189      F2192   1.358       .  S
C2190      F2194   1.358       .  S
C2197      C2198   1.405       .  A
C2197      C2202   1.403       .  A
C2197      F2215   1.358       .  S
C2198      C2203   1.483   1_556  S
C2198      C2199   1.404       .  A
C2199      C2200   1.398       .  A
C2199      F2204   1.358       .  S
C2200      C2201   1.411       .  A
C2200      F2216   1.358       .  S
C2201      C2202   1.410       .  A
C2202      F2205   1.358       .  S
C2203      C2206   1.404       .  A
C2203      C2210   1.406       .  A
C2206      C2207   1.398       .  A
C2206      F2211   1.358       .  S
C2207      C2208   1.410       .  A
C2207      F2213   1.358       .  S
C2208      C2209   1.409       .  A
C2209      C2210   1.402       .  A
C2209      F2212   1.358       .  S
C2210      F2214   1.358       .  S
C2217      C2218   1.403       .  A
C2217      C2222   1.397   1_565  A
C2217      F2235   1.358       .  S
C2218      C2223   1.477       .  S
C2218      C2219   1.405       .  A
C2219      C2220   1.396   1_565  A
C2219      F2224   1.358       .  S
C2220      C2221   1.408       .  A
C2220      F2236   1.358       .  S
C2221      C2222   1.410       .  A
C2222      F2225   1.358       .  S
C2223      C2226   1.399       .  A
C2223      C2230   1.406       .  A
C2226      C2227   1.391       .  A
C2226      F2231   1.359       .  S
C2227      C2228   1.415       .  A
C2227      F2233   1.358       .  S
C2228      C2229   1.410       .  A
C2229      C2230   1.402       .  A
C2229      F2232   1.358       .  S
C2230      F2234   1.358       .  S
C2237      C2238   1.398       .  A
C2237      C2242   1.394       .  A
C2237      F2255   1.358       .  S
C2238      C2243   1.473       .  S
C2238      C2239   1.405       .  A
C2239      C2240   1.399       .  A
C2239      F2244   1.358       .  S
C2240      C2241   1.410       .  A
C2240      F2256   1.357       .  S
C2241      C2242   1.416       .  A
C2242      F2245   1.358       .  S
C2243      C2246   1.408       .  A
C2243      C2250   1.398       .  A
C2246      C2247   1.404       .  A
C2246      F2251   1.358       .  S
C2247      C2248   1.407       .  A
C2247      F2253   1.358       .  S
C2248      C2249   1.410       .  A
C2249      C2250   1.389       .  A
C2249      F2252   1.359       .  S
C2250      F2254   1.358       .  S
C2257      C2258   1.397       .  A
C2257      C2262   1.394       .  A
C2257      F2275   1.358       .  S
C2258      C2263   1.473       .  S
C2258      C2259   1.404       .  A
C2259      C2260   1.403       .  A
C2259      F2264   1.357       .  S
C2260      C2261   1.409       .  A
C2260      F2276   1.357       .  S
C2261      C2262   1.416       .  A
C2262      F2265   1.358       .  S
C2263      C2266   1.403       .  A
C2263      C2270   1.398       .  A
C2266      C2267   1.401       .  A
C2266      F2271   1.357       .  S
C2267      C2268   1.411       .  A
C2267      F2273   1.357       .  S
C2268      C2269   1.417       .  A
C2269      C2270   1.397       .  A
C2269      F2272   1.358       .  S
C2270      F2274   1.358       .  S
C2277      C2278   1.406       .  A
C2277      C2282   1.397       .  A
C2277      F2295   1.358       .  S
C2278      C2283   1.481       .  S
C2278      C2279   1.405       .  A
C2279      C2280   1.399       .  A
C2279      F2284   1.358       .  S
C2280      C2281   1.408       .  A
C2280      F2296   1.358       .  S
C2281      C2282   1.407       .  A
C2282      F2285   1.358       .  S
C2283      C2286   1.408       .  A
C2283      C2290   1.404       .  A
C2286      C2287   1.401       .  A
C2286      F2291   1.358       .  S
C2287      C2288   1.405       .  A
C2287      F2293   1.357       .  S
C2288      C2289   1.409       .  A
C2289      C2290   1.396       .  A
C2289      F2292   1.359       .  S
C2290      F2294   1.358       .  S
C2297      C2298   1.401       .  A
C2297      C2302   1.398       .  A
C2297      F2315   1.358       .  S
C2298      C2303   1.473       .  S
C2298      C2299   1.400       .  A
C2299      C2300   1.397       .  A
C2299      F2304   1.358       .  S
C2300      C2301   1.414       .  A
C2300      F2316   1.358       .  S
C2301      C2302   1.413       .  A
C2302      F2305   1.358       .  S
C2303      C2306   1.402       .  A
C2303      C2310   1.400       .  A
C2306      C2307   1.398       .  A
C2306      F2311   1.358       .  S
C2307      C2308   1.412       .  A
C2307      F2313   1.358       .  S
C2308      C2309   1.413       .  A
C2309      C2310   1.397       .  A
C2309      F2312   1.358       .  S
C2310      F2314   1.358       .  S
C2317      C2318   1.403       .  A
C2317      C2322   1.394       .  A
C2317      F2335   1.358       .  S
C2318      C2323   1.485       .  S
C2318      C2319   1.409       .  A
C2319      C2320   1.403       .  A
C2319      F2324   1.358       .  S
C2320      C2321   1.409       .  A
C2320      F2336   1.358       .  S
C2321      C2322   1.413       .  A
C2322      F2325   1.358       .  S
C2323      C2326   1.407       .  A
C2323      C2330   1.406       .  A
C2326      C2327   1.398       .  A
C2326      F2331   1.358       .  S
C2327      C2328   1.408       .  A
C2327      F2333   1.358       .  S
C2328      C2329   1.409       .  A
C2329      C2330   1.399       .  A
C2329      F2332   1.358       .  S
C2330      F2334   1.358       .  S
C2337      C2338   1.405       .  A
C2337      C2342   1.404       .  A
C2337      F2355   1.358       .  S
C2338      C2343   1.481       .  S
C2338      C2339   1.403       .  A
C2339      C2340   1.397       .  A
C2339      F2344   1.358       .  S
C2340      C2341   1.409       .  A
C2340      F2356   1.358       .  S
C2341      C2342   1.411       .  A
C2342      F2345   1.358       .  S
C2343      C2346   1.406       .  A
C2343      C2350   1.400       .  A
C2346      C2347   1.404       .  A
C2346      F2351   1.357       .  S
C2347      C2348   1.410       .  A
C2347      F2353   1.357       .  S
C2348      C2349   1.416       .  A
C2349      C2350   1.396       .  A
C2349      F2352   1.358       .  S
C2350      F2354   1.358       .  S
C2357      C2358   1.407       .  A
C2357      C2362   1.402       .  A
C2357      F2375   1.358       .  S
C2358      C2363   1.491       .  S
C2358      C2359   1.406       .  A
C2359      C2360   1.401       .  A
C2359      F2364   1.358       .  S
C2360      C2361   1.411       .  A
C2360      F2376   1.358       .  S
C2361      C2362   1.410       .  A
C2362      F2365   1.358       .  S
C2363      C2366   1.406       .  A
C2363      C2370   1.407       .  A
C2366      C2367   1.401       .  A
C2366      F2371   1.358       .  S
C2367      C2368   1.410       .  A
C2367      F2373   1.358       .  S
C2368      C2369   1.410       .  A
C2369      C2370   1.402       .  A
C2369      F2372   1.358       .  S
C2370      F2374   1.358       .  S
C2377      C2378   1.399       .  A
C2377      C2382   1.392       .  A
C2377      F2395   1.358       .  S
C2378      C2383   1.475       .  S
C2378      C2379   1.407       .  A
C2379      C2380   1.402       .  A
C2379      F2384   1.358       .  S
C2380      C2381   1.406       .  A
C2380      F2396   1.357       .  S
C2381      C2382   1.412       .  A
C2382      F2385   1.359       .  S
C2383      C2386   1.401       .  A
C2383      C2390   1.403       .  A
C2386      C2387   1.397   1_565  A
C2386      F2391   1.358       .  S
C2387      C2388   1.414       .  A
C2387      F2393   1.358       .  S
C2388      C2389   1.410       .  A
C2389      C2390   1.396   1_545  A
C2389      F2392   1.358       .  S
C2390      F2394   1.358       .  S
C2397      C2398   1.400       .  A
C2397      C2402   1.392       .  A
C2397      F2415   1.358       .  S
C2398      C2403   1.479       .  S
C2398      C2399   1.408       .  A
C2399      C2400   1.406       .  A
C2399      F2404   1.357       .  S
C2400      C2401   1.407       .  A
C2400      F2416   1.358       .  S
C2401      C2402   1.410       .  A
C2402      F2405   1.359       .  S
C2403      C2406   1.406       .  A
C2403      C2410   1.404       .  A
C2406      C2407   1.402       .  A
C2406      F2411   1.358       .  S
C2407      C2408   1.406       .  A
C2407      F2413   1.358       .  S
C2408      C2409   1.406       .  A
C2409      C2410   1.397       .  A
C2409      F2412   1.358       .  S
C2410      F2414   1.358       .  S
C2417      C2418   1.408       .  A
C2417      C2422   1.403       .  A
C2417      F2435   1.358       .  S
C2418      C2423   1.479       .  S
C2418      C2419   1.399       .  A
C2419      C2420   1.391       .  A
C2419      F2424   1.359       .  S
C2420      C2421   1.416       .  A
C2420      F2436   1.359       .  S
C2421      C2422   1.407       .  A
C2422      F2425   1.357       .  S
C2423      C2426   1.407       .  A
C2423      C2430   1.404       .  A
C2426      C2427   1.397       .  A
C2426      F2431   1.358       .  S
C2427      C2428   1.405       .  A
C2427      F2433   1.358       .  S
C2428      C2429   1.406       .  A
C2429      C2430   1.396       .  A
C2429      F2432   1.358       .  S
C2430      F2434   1.358       .  S
C2437      C2438   1.403       .  A
C2437      C2442   1.397       .  A
C2437      F2455   1.358       .  S
C2438      C2443   1.482       .  S
C2438      C2439   1.408       .  A
C2439      C2440   1.400       .  A
C2439      F2444   1.358       .  S
C2440      C2441   1.405       .  A
C2440      F2456   1.357       .  S
C2441      C2442   1.411       .  A
C2442      F2445   1.358       .  S
C2443      C2446   1.407       .  A
C2443      C2450   1.403       .  A
C2446      C2447   1.400       .  A
C2446      F2451   1.358       .  S
C2447      C2448   1.408       .  A
C2447      F2453   1.358       .  S
C2448      C2449   1.411       .  A
C2449      C2450   1.396       .  A
C2449      F2452   1.358       .  S
C2450      F2454   1.358       .  S
C2457      C2458   1.405       .  A
C2457      C2462   1.396       .  A
C2457      F2475   1.358       .  S
C2458      C2463   1.479   1_554  S
C2458      C2459   1.404       .  A
C2459      C2460   1.399       .  A
C2459      F2464   1.358       .  S
C2460      C2461   1.410       .  A
C2460      F2476   1.358       .  S
C2461      C2462   1.407       .  A
C2462      F2465   1.358       .  S
C2463      C2466   1.403       .  A
C2463      C2470   1.406       .  A
C2466      C2467   1.392       .  A
C2466      F2471   1.358       .  S
C2467      C2468   1.409       .  A
C2467      F2473   1.358       .  S
C2468      C2469   1.411       .  A
C2469      C2470   1.401       .  A
C2469      F2472   1.358       .  S
C2470      F2474   1.358       .  S
C2477      C2478   1.410       .  A
C2477      C2482   1.408       .  A
C2477      F2495   1.357       .  S
C2478      C2483   1.485       .  S
C2478      C2479   1.400       .  A
C2479      C2480   1.395       .  A
C2479      F2484   1.358       .  S
C2480      C2481   1.414       .  A
C2480      F2496   1.359       .  S
C2481      C2482   1.407       .  A
C2482      F2485   1.357       .  S
C2483      C2486   1.407       .  A
C2483      C2490   1.400       .  A
C2486      C2487   1.406       .  A
C2486      F2491   1.358       .  S
C2487      C2488   1.411       .  A
C2487      F2493   1.357       .  S
C2488      C2489   1.418       .  A
C2489      C2490   1.398       .  A
C2489      F2492   1.358       .  S
C2490      F2494   1.358       .  S
C2497      C2498   1.399       .  A
C2497      C2502   1.394       .  A
C2497      F2515   1.358       .  S
C2498      C2503   1.474       .  S
C2498      C2499   1.403       .  A
C2499      C2500   1.401       .  A
C2499      F2504   1.358       .  S
C2500      C2501   1.411       .  A
C2500      F2516   1.357       .  S
C2501      C2502   1.415       .  A
C2502      F2505   1.358       .  S
C2503      C2506   1.398       .  A
C2503      C2510   1.406       .  A
C2506      C2507   1.393       .  A
C2506      F2511   1.358       .  S
C2507      C2508   1.413       .  A
C2507      F2513   1.358       .  S
C2508      C2509   1.408       .  A
C2509      C2510   1.403       .  A
C2509      F2512   1.357       .  S
C2510      F2514   1.358       .  S
C2517      C2518   1.406       .  A
C2517      C2522   1.401       .  A
C2517      F2535   1.358       .  S
C2518      C2523   1.482       .  S
C2518      C2519   1.405       .  A
C2519      C2520   1.399       .  A
C2519      F2524   1.358       .  S
C2520      C2521   1.407       .  A
C2520      F2536   1.358       .  S
C2521      C2522   1.406       .  A
C2522      F2525   1.358       .  S
C2523      C2526   1.406       .  A
C2523      C2530   1.404       .  A
C2526      C2527   1.402       .  A
C2526      F2531   1.358       .  S
C2527      C2528   1.408       .  A
C2527      F2533   1.358       .  S
C2528      C2529   1.410       .  A
C2529      C2530   1.399       .  A
C2529      F2532   1.358       .  S
C2530      F2534   1.358       .  S
C2537      C2538   1.406       .  A
C2537      C2542   1.397       .  A
C2537      F2555   1.358       .  S
C2538      C2543   1.485   1_556  S
C2538      C2539   1.405       .  A
C2539      C2540   1.400       .  A
C2539      F2544   1.358       .  S
C2540      C2541   1.413       .  A
C2540      F2556   1.358       .  S
C2541      C2542   1.411       .  A
C2542      F2545   1.358       .  S
C2543      C2546   1.408       .  A
C2543      C2550   1.406       .  A
C2546      C2547   1.402       .  A
C2546      F2551   1.358       .  S
C2547      C2548   1.405       .  A
C2547      F2553   1.358       .  S
C2548      C2549   1.405       .  A
C2549      C2550   1.396       .  A
C2549      F2552   1.358       .  S
C2550      F2554   1.358       .  S
C2557      C2558   1.403       .  A
C2557      C2562   1.397       .  A
C2557      F2575   1.358       .  S
C2558      C2563   1.472       .  S
C2558      C2559   1.401       .  A
C2559      C2560   1.397       .  A
C2559      F2564   1.358       .  S
C2560      C2561   1.410       .  A
C2560      F2576   1.358       .  S
C2561      C2562   1.409       .  A
C2562      F2565   1.358       .  S
C2563      C2566   1.404       .  A
C2563      C2570   1.398       .  A
C2566      C2567   1.402       .  A
C2566      F2571   1.358       .  S
C2567      C2568   1.410       .  A
C2567      F2573   1.357       .  S
C2568      C2569   1.415       .  A
C2569      C2570   1.391       .  A
C2569      F2572   1.358       .  S
C2570      F2574   1.359       .  S
C2577      C2578   1.410   1_565  A
C2577      C2582   1.400       .  A
C2577      F2595   1.358   1_565  S
C2578      C2583   1.484       .  S
C2578      C2579   1.405   1_545  A
C2579      C2580   1.395       .  A
C2579      F2584   1.358   1_565  S
C2580      C2581   1.407       .  A
C2580      F2596   1.358       .  S
C2581      C2582   1.405       .  A
C2582      F2585   1.358       .  S
C2583      C2586   1.402       .  A
C2583      C2590   1.411       .  A
C2586      C2587   1.392       .  A
C2586      F2591   1.358       .  S
C2587      C2588   1.413       .  A
C2587      F2593   1.359       .  S
C2588      C2589   1.406       .  A
C2589      C2590   1.403       .  A
C2589      F2592   1.358       .  S
C2590      F2594   1.358       .  S
C2597      C2598   1.409       .  A
C2597      C2602   1.406       .  A
C2597      F2615   1.358       .  S
C2598      C2603   1.488       .  S
C2598      C2599   1.402       .  A
C2599      C2600   1.396       .  A
C2599      F2604   1.358       .  S
C2600      C2601   1.415       .  A
C2600      F2616   1.358       .  S
C2601      C2602   1.410       .  A
C2602      F2605   1.357       .  S
C2603      C2606   1.406       .  A
C2603      C2610   1.408       .  A
C2606      C2607   1.401       .  A
C2606      F2611   1.358       .  S
C2607      C2608   1.408       .  A
C2607      F2613   1.358       .  S
C2608      C2609   1.406       .  A
C2609      C2610   1.401       .  A
C2609      F2612   1.358       .  S
C2610      F2614   1.358       .  S
C2617      C2618   1.405       .  A
C2617      C2622   1.402       .  A
C2617      F2635   1.357       .  S
C2618      C2623   1.478       .  S
C2618      C2619   1.401       .  A
C2619      C2620   1.397       .  A
C2619      F2624   1.358       .  S
C2620      C2621   1.413       .  A
C2620      F2636   1.358       .  S
C2621      C2622   1.408       .  A
C2622      F2625   1.358       .  S
C2623      C2626   1.400       .  A
C2623      C2630   1.404       .  A
C2626      C2627   1.397       .  A
C2626      F2631   1.358       .  S
C2627      C2628   1.414       .  A
C2627      F2633   1.358       .  S
C2628      C2629   1.413       .  A
C2629      C2630   1.404       .  A
C2629      F2632   1.358       .  S
C2630      F2634   1.358       .  S
C2637      C2638   1.402       .  A
C2637      C2642   1.398       .  A
C2637      F2655   1.358       .  S
C2638      C2643   1.476       .  S
C2638      C2639   1.405       .  A
C2639      C2640   1.398       .  A
C2639      F2644   1.358       .  S
C2640      C2641   1.407       .  A
C2640      F2656   1.358       .  S
C2641      C2642   1.410       .  A
C2642      F2645   1.358       .  S
C2643      C2646   1.401       .  A
C2643      C2650   1.404       .  A
C2646      C2647   1.395       .  A
C2646      F2651   1.358       .  S
C2647      C2648   1.410       .  A
C2647      F2653   1.358       .  S
C2648      C2649   1.412       .  A
C2649      C2650   1.401       .  A
C2649      F2652   1.358       .  S
C2650      F2654   1.358       .  S
