geometry optimzed in LAMMPS
_audit_creation_date              2020-12-01 
_audit_creation_method            'lammps2cif' 
_symmetry_space_group_name_H-M    'P1' 
_symmetry_Int_Tables_number       1 
_symmetry_cell_setting            triclinic 
loop_ 
_symmetry_equiv_pos_as_xyz 
  x,y,z 
_cell_length_a                    38.9118453 
_cell_length_b                    74.74313920438927 
_cell_length_c                    38.09757833181877 
_cell_angle_alpha                 89.79307692012965 
_cell_angle_beta                  90.01064507455851 
_cell_angle_gamma                 89.94671350647019 
loop_ 
_atom_site_label 
_atom_site_type_symbol 
_atom_site_fract_x 
_atom_site_fract_y 
_atom_site_fract_z 
_atom_site_charge 
Zr1        Zr  0.16949053  0.85181920  0.45044092     2.17500
O2          O  0.12222663  0.84312801  0.41199035    -0.51700
O3          O  0.16399035  0.81961567  0.46326398    -0.74900
O4          O  0.18711577  0.84872676  0.38825353    -0.81700
O5          O  0.10905622  0.86963540  0.52343127    -0.83400
O6          O  0.24383039  0.85575871  0.38313791    -0.79100
O7          O  0.11010540  0.85986773  0.46692294    -0.90700
O8          O  0.20799202  0.81086528  0.49824428    -0.76700
O9          O  0.22870715  0.84363768  0.45508642    -0.86200
O10         O  0.17939099  0.84593637  0.51132490    -0.85900
O11         O  0.20242463  0.87708342  0.42940127    -0.72600
O12         O  0.15762626  0.87920616  0.48087728    -0.84700
Zr13       Zr  0.26057070  0.88970880  0.52600092     2.26400
Zr14       Zr  0.26185454  0.86907419  0.43655827     2.06300
Zr15       Zr  0.16845861  0.87347756  0.54152936     2.10000
Zr16       Zr  0.23849720  0.83761958  0.51544760     1.78800
O17         O  0.13941204  0.89963112  0.56541290    -0.93500
O18         O  0.28164988  0.81771665  0.49055905    -0.41400
O19         O  0.22724375  0.86474014  0.54595912    -0.78000
O20         O  0.27347685  0.86209305  0.49645698    -0.96700
O21         O  0.25011972  0.89638406  0.46600807    -0.90000
O22         O  0.20165246  0.89857313  0.52177591    -0.92800
C23         C  0.18068957  0.80760506  0.48062834     1.00900
C24         C  0.09414258  0.86536079  0.49459136     1.13900
C25         C  0.21522865  0.85050818  0.37057547     1.04600
O26         O  0.30381486  0.84806093  0.41351450    -0.95000
O27         O  0.32041074  0.87826436  0.44920719    -0.90700
O28         O  0.32014064  0.88873553  0.50505175    -0.83900
C29         C  0.33559861  0.88444150  0.47648310     1.11300
O30         O  0.14424709  0.90857308  0.41913417    -0.96900
Zr31       Zr  0.19088558  0.90394859  0.46089613     1.88900
O32         O  0.26037218  0.92219820  0.51872212    -0.73600
O33         O  0.27440814  0.89165391  0.39207920    -0.52900
O34         O  0.21049360  0.91746963  0.40619533    -0.97500
O35         O  0.14694852  0.92365595  0.48524550    -0.54800
O36         O  0.22145641  0.93033863  0.47716102    -0.74100
C37         C  0.24525206  0.93380405  0.49912658     0.98200
O38         O  0.30234212  0.89923069  0.56987720    -0.62900
O39         O  0.14092461  0.85379846  0.58423094    -0.57700
O40         O  0.24959977  0.88584354  0.58862695    -0.94400
O41         O  0.19421562  0.87785468  0.59885174    -0.92800
O42         O  0.22297685  0.82536519  0.57245129    -0.93200
O43         O  0.28694495  0.83282654  0.55483977    -0.92000
C44         C  0.22454984  0.88194689  0.60929374     1.17100
H45         H  0.16436683  0.83675169  0.52040272     0.33000
H46         H  0.29695248  0.85830864  0.49986448     0.43900
H47         H  0.19728393  0.90903988  0.53587679     0.37400
H48         H  0.19735534  0.87979605  0.40517829     0.33900
H49         H  0.27957997  0.80648680  0.50426565     0.25700
H50         H  0.29363870  0.88653277  0.37836416     0.31600
H51         H  0.20355351  0.93019209  0.40768172     0.37500
H52         H  0.19950235  0.82995082  0.57682575     0.32000
H53         H  0.12143183  0.86083246  0.59362172     0.30800
H54         H  0.13126258  0.89578417  0.58886804     0.32500
H55         H  0.15819358  0.92998097  0.50493182     0.31500
H56         H  0.28850231  0.84401468  0.56860482     0.35500
H57         H  0.31934862  0.88940981  0.57184247     0.28200
H58         H  0.13016066  0.83233231  0.39937659     0.32500
H59         H  0.14129571  0.92169514  0.41712852     0.35300
H60         H  0.13007598  0.84416426  0.57037813     0.27900
H61         H  0.31503913  0.90935562  0.55920439     0.40800
H62         H  0.29681691  0.83630900  0.42317056     0.30800
H63         H  0.27275148  0.81461679  0.46701046     0.38500
H64         H  0.13035399  0.91547047  0.49668149     0.30300
H65         H  0.25455515  0.89134926  0.37583490     0.30400
H66         H  0.12082304  0.85260839  0.39381811     0.30600
Zr67       Zr  0.66942966  0.86185131  0.44523784     2.17500
O68         O  0.62254657  0.85786795  0.40341321    -0.51700
O69         O  0.66126007  0.82939120  0.44460939    -0.74900
O70         O  0.68859406  0.86372632  0.38336218    -0.81700
O71         O  0.60953330  0.87797591  0.51999520    -0.83400
O72         O  0.74569096  0.87018436  0.38214805    -0.79100
O73         O  0.61010652  0.86948763  0.46293338    -0.90700
O74         O  0.69845717  0.81623249  0.48274006    -0.76700
O75         O  0.72741552  0.85160661  0.44884662    -0.86200
O76         O  0.67597412  0.84999182  0.50326324    -0.85900
O77         O  0.70495524  0.88785433  0.43468239    -0.72600
O78         O  0.65997606  0.88571850  0.48568936    -0.84700
Zr79       Zr  0.76033468  0.89020005  0.53691174     2.26400
Zr80       Zr  0.76313289  0.87755565  0.44077570     2.06300
Zr81       Zr  0.66733882  0.87406922  0.54365734     2.10000
Zr82       Zr  0.73386654  0.83985696  0.50652785     1.78800
O83         O  0.63769474  0.89533777  0.58142568    -0.93500
O84         O  0.77305802  0.82148055  0.47214987    -0.41400
O85         O  0.72547139  0.86412786  0.54634051    -0.78000
O86         O  0.77099625  0.86511300  0.49823765    -0.96700
O87         O  0.75315394  0.90223338  0.47934866    -0.90000
O88         O  0.70209643  0.89994483  0.53397107    -0.92800
C89         C  0.67372496  0.81570223  0.46061439     1.00900
C90         C  0.59432461  0.87525031  0.49052154     1.13900
C91         C  0.71721885  0.86649208  0.36713011     1.04600
O92         O  0.80356738  0.85865244  0.40929172    -0.95000
O93         O  0.82220247  0.88194261  0.45954804    -0.90700
O94         O  0.82053307  0.88845226  0.51767531    -0.83900
C95         C  0.83683788  0.88507656  0.48909682     1.11300
O96         O  0.65413519  0.92096638  0.43045853    -0.96900
Zr97       Zr  0.69447291  0.91138487  0.47581433     1.88900
O98         O  0.75652887  0.92274358  0.54761522    -0.73600
O99         O  0.77964019  0.90349201  0.40578537    -0.52900
O100        O  0.72205784  0.93276966  0.43652362    -0.97500
O101        O  0.64344035  0.92572712  0.50007192    -0.54800
O102        O  0.71637043  0.93507281  0.51153950    -0.74100
C103        C  0.73865665  0.93604007  0.53604172     0.98200
O104        O  0.80219848  0.89625254  0.58317685    -0.62900
O105        O  0.63654820  0.84933051  0.57115443    -0.57700
O106        O  0.74859381  0.88060452  0.59704077    -0.94400
O107        O  0.69377353  0.87057681  0.60187675    -0.92800
O108        O  0.71411307  0.82368012  0.55833065    -0.93200
O109        O  0.78054254  0.82676348  0.54069363    -0.92000
C110        C  0.72376797  0.87374051  0.61479836     1.17100
H111        H  0.65955027  0.84068257  0.50829126     0.33000
H112        H  0.79371966  0.86023231  0.50124311     0.43900
H113        H  0.69687958  0.90868898  0.55171535     0.37400
H114        H  0.70108121  0.89286306  0.41163105     0.33900
H115        H  0.76158221  0.81988959  0.44917240     0.25700
H116        H  0.79569279  0.91028333  0.42085380     0.31600
H117        H  0.72459111  0.92632460  0.41401870     0.37500
H118        H  0.71889710  0.83174643  0.57830498     0.32000
H119        H  0.62527257  0.85470822  0.59188725     0.30800
H120        H  0.65589680  0.90110039  0.59557020     0.32500
H121        H  0.62571083  0.91623517  0.50065279     0.31500
H122        H  0.79600475  0.83689141  0.54610324     0.35500
H123        H  0.81888939  0.88624312  0.58293402     0.28200
H124        H  0.62845440  0.84698545  0.38994345     0.32500
H125        H  0.65337877  0.93418306  0.43201511     0.35300
H126        H  0.61742292  0.84650668  0.55496670     0.27900
H127        H  0.81535362  0.90685422  0.57525621     0.40800
H128        H  0.79366751  0.84648236  0.41083293     0.30800
H129        H  0.79276004  0.82941668  0.46704035     0.38500
H130        H  0.64893926  0.92788020  0.52506952     0.30300
H131        H  0.79431528  0.89855566  0.38691259     0.30400
H132        H  0.62451987  0.86781991  0.38631834     0.30600
Zr133      Zr  0.22224694  0.10906581  0.51142629     2.17500
O134        O  0.17591885  0.10263734  0.47011445    -0.51700
O135        O  0.22954240  0.07641603  0.51366218    -0.74900
O136        O  0.24234396  0.10526225  0.45124390    -0.81700
O137        O  0.15211174  0.12732964  0.57212893    -0.83400
O138        O  0.29932671  0.11161449  0.44948460    -0.79100
O139        O  0.16098727  0.11050944  0.52320712    -0.90700
O140        O  0.26372377  0.06894304  0.55974847    -0.76700
O141        O  0.27765701  0.09898227  0.52838809    -0.86200
O142        O  0.22008753  0.10530802  0.57360539    -0.85900
O143        O  0.25909128  0.13321957  0.49264568    -0.72600
O144        O  0.20830717  0.13802007  0.53539015    -0.84700
Zr145      Zr  0.30382206  0.14669438  0.59714919     2.26400
Zr146      Zr  0.31488371  0.12231626  0.50884445     2.06300
Zr147      Zr  0.20787477  0.13420314  0.59753334     2.10000
Zr148      Zr  0.27591851  0.09587328  0.59081035     1.78800
O149        O  0.17296493  0.16074976  0.60762917    -0.93500
O150        O  0.32978878  0.07945021  0.59647700    -0.41400
O151        O  0.26363699  0.12422965  0.61579272    -0.78000
O152        O  0.31594729  0.11799107  0.57170642    -0.96700
O153        O  0.30321889  0.15085490  0.53492069    -0.90000
O154        O  0.24771604  0.15743680  0.58192504    -0.92800
C155        C  0.24671553  0.06507784  0.53217671     1.00900
C156        C  0.14153717  0.11836786  0.54553272     1.13900
C157        C  0.27102273  0.10659609  0.43478179     1.04600
O158        O  0.34870420  0.09537287  0.49922945    -0.95000
O159        O  0.37159568  0.13006488  0.53010340    -0.90700
O160        O  0.36572559  0.14299105  0.58393205    -0.83900
C161        C  0.38393258  0.13700347  0.55814245     1.11300
O162        O  0.20343937  0.16716319  0.47568485    -0.96900
Zr163      Zr  0.24748653  0.16142844  0.51994274     1.88900
O164        O  0.31288335  0.17842872  0.58580168    -0.73600
O165        O  0.34855721  0.14064985  0.46871285    -0.52900
O166        O  0.27497133  0.17249364  0.46658583    -0.97500
O167        O  0.20481551  0.18391289  0.53587288    -0.54800
O168        O  0.28155491  0.18689807  0.53837722    -0.74100
C169        C  0.30366044  0.18996935  0.56260652     0.98200
O170        O  0.34740581  0.15100036  0.64238229    -0.62900
O171        O  0.17491731  0.11582607  0.63831897    -0.57700
O172        O  0.27942458  0.14975914  0.65738960    -0.94400
O173        O  0.22204838  0.14380759  0.65626971    -0.92800
O174        O  0.23565438  0.08004926  0.62880477    -0.93200
O175        O  0.29960076  0.09207740  0.64948377    -0.92000
C176        C  0.24967310  0.14824446  0.67236067     1.17100
H177        H  0.20265321  0.09670181  0.57998019     0.33000
H178        H  0.33809615  0.11365090  0.57919236     0.43900
H179        H  0.24259302  0.16839822  0.59422044     0.37400
H180        H  0.25729088  0.13554357  0.46782626     0.33900
H181        H  0.32304960  0.06670659  0.59806808     0.25700
H182        H  0.35602839  0.13241824  0.44989663     0.31600
H183        H  0.26614757  0.16501141  0.44719950     0.37500
H184        H  0.24462258  0.06766337  0.63009662     0.32000
H185        H  0.19231965  0.11030377  0.65392911     0.30800
H186        H  0.15345843  0.15647059  0.62206384     0.32500
H187        H  0.21389168  0.18983815  0.55712986     0.31500
H188        H  0.31639083  0.10195280  0.65179013     0.35500
H189        H  0.34057142  0.16189398  0.65535383     0.28200
H190        H  0.18203058  0.09111960  0.45895340     0.32500
H191        H  0.20790928  0.17941552  0.46682958     0.35300
H192        H  0.16253795  0.12445556  0.65340230     0.27900
H193        H  0.34429652  0.14099620  0.65919036     0.40800
H194        H  0.36969889  0.09959545  0.48710194     0.30800
H195        H  0.34108867  0.08066100  0.57332372     0.38500
H196        H  0.18477658  0.17695661  0.54425628     0.30300
H197        H  0.33163355  0.14872499  0.45747427     0.30400
H198        H  0.17786386  0.11170359  0.45119011     0.30600
Zr199      Zr  0.80932790  0.14708951  0.50046794     2.17500
O200        O  0.85451482  0.14874254  0.45615770    -0.51700
O201        O  0.81878565  0.17904739  0.50690233    -0.74900
O202        O  0.78666722  0.15258328  0.44057251    -0.81700
O203        O  0.87319784  0.12846827  0.57012831    -0.83400
O204        O  0.72889115  0.14789988  0.44008516    -0.79100
O205        O  0.86936026  0.13975260  0.51460176    -0.90700
O206        O  0.78272776  0.18958959  0.54891935    -0.76700
O207        O  0.75289650  0.15826869  0.51130737    -0.86200
O208        O  0.80671205  0.15359370  0.56193533    -0.85900
O209        O  0.77080499  0.12370219  0.48284915    -0.72600
O210        O  0.81991631  0.11962495  0.53144776    -0.84700
Zr211      Zr  0.72117716  0.11272391  0.58604191     2.26400
Zr212      Zr  0.71422586  0.13453412  0.49601278     2.06300
Zr213      Zr  0.81539005  0.12595251  0.59292036     2.10000
Zr214      Zr  0.75030380  0.16443841  0.57241524     1.78800
O215        O  0.84828207  0.10061136  0.61525411    -0.93500
O216        O  0.70563234  0.18491576  0.55233427    -0.41400
O217        O  0.75858617  0.13680487  0.60388740    -0.78000
O218        O  0.71099282  0.14115190  0.55731572    -0.96700
O219        O  0.72432806  0.10650528  0.52486686    -0.90000
O220        O  0.77806434  0.10220048  0.57560651    -0.92800
C221        C  0.80647066  0.19166383  0.52587958     1.00900
C222        C  0.88646608  0.13340707  0.54084693     1.13900
C223        C  0.75709293  0.15244067  0.42515163     1.04600
O224        O  0.67282246  0.15679409  0.47606419    -0.95000
O225        O  0.65584810  0.12924779  0.51666710    -0.90700
O226        O  0.66009713  0.11684948  0.57109116    -0.83900
C227        C  0.64251547  0.12317832  0.54516989     1.11300
O228        O  0.82153542  0.09181313  0.46560437    -0.96900
Zr229      Zr  0.78162168  0.09654499  0.51404925     1.88900
O230        O  0.72210277  0.07952513  0.58420982    -0.73600
O231        O  0.69623656  0.11208894  0.45369176    -0.52900
O232        O  0.75139734  0.08181294  0.46616895    -0.97500
O233        O  0.82815833  0.07617560  0.52993646    -0.54800
O234        O  0.75578356  0.07048672  0.53882913    -0.74100
C235        C  0.73585496  0.06737587  0.56469103     0.98200
O236        O  0.67334720  0.10601148  0.62545879    -0.62900
O237        O  0.84307740  0.14691527  0.63277257    -0.57700
O238        O  0.73942200  0.11354183  0.64751425    -0.94400
O239        O  0.79689309  0.11779744  0.65202436    -0.92800
O240        O  0.77611606  0.17825054  0.62383833    -0.93200
O241        O  0.70856830  0.17269128  0.61715098    -0.92000
C242        C  0.76726889  0.11465045  0.66556255     1.17100
H243        H  0.82391727  0.16227233  0.56838972     0.33000
H244        H  0.68878931  0.14599220  0.56342069     0.43900
H245        H  0.78330779  0.09169361  0.58943415     0.37400
H246        H  0.77302904  0.12114153  0.45814070     0.33900
H247        H  0.71247051  0.19674260  0.56164593     0.25700
H248        H  0.68377624  0.10297824  0.46766305     0.31600
H249        H  0.75417495  0.08983019  0.44562276     0.37500
H250        H  0.78284022  0.16807677  0.63907312     0.32000
H251        H  0.86154302  0.13982653  0.64408650     0.30800
H252        H  0.85676276  0.09438790  0.59407465     0.32500
H253        H  0.82296001  0.07215518  0.55414914     0.31500
H254        H  0.70078864  0.16113868  0.62715007     0.35500
H255        H  0.67731550  0.09364106  0.63383896     0.28200
H256        H  0.85039174  0.15994544  0.44285885     0.32500
H257        H  0.82001736  0.07890740  0.46004028     0.35300
H258        H  0.85541621  0.15560097  0.61775572     0.27900
H259        H  0.67602722  0.11366243  0.64644048     0.40800
H260        H  0.66774618  0.16406395  0.49710957     0.30800
H261        H  0.70919901  0.18593897  0.52668498     0.38500
H262        H  0.84859701  0.08394348  0.53245123     0.30300
H263        H  0.67813910  0.11809312  0.43967893     0.30400
H264        H  0.84950138  0.13897391  0.43943834     0.30600
Zr265      Zr  0.22377013  0.88565245  0.04260694     2.17500
O266        O  0.17554320  0.88860573  0.08322574    -0.51700
O267        O  0.22372524  0.91752723  0.05973216    -0.74900
O268        O  0.23928286  0.87733452  0.10232165    -0.81700
O269        O  0.16105329  0.87668828  0.96662207    -0.83400
O270        O  0.29636311  0.87101560  0.10498975    -0.79100
O271        O  0.16395052  0.88016884  0.02573514    -0.90700
O272        O  0.26547048  0.93193966  0.02915844    -0.76700
O273        O  0.28033682  0.89761933  0.04030284    -0.86200
O274        O  0.22794573  0.90083619  0.98762789    -0.85900
O275        O  0.26097689  0.85966865  0.04613429    -0.72600
O276        O  0.21462866  0.86297222  0.99873877    -0.84700
Zr277      Zr  0.31494792  0.86566630  0.94471413     2.26400
Zr278      Zr  0.31762835  0.87226033  0.04453056     2.06300
Zr279      Zr  0.21926799  0.87820251  0.94404632     2.10000
Zr280      Zr  0.28518967  0.91210033  0.98463504     1.78800
O281        O  0.18725461  0.85662026  0.90924776    -0.93500
O282        O  0.33629634  0.92755588  0.00563042    -0.41400
O283        O  0.27591874  0.89048833  0.93983931    -0.78000
O284        O  0.32424793  0.88777820  0.98956582    -0.96700
O285        O  0.31001521  0.85033159  0.99944284    -0.90000
O286        O  0.25841889  0.85334346  0.94573827    -0.92800
C287        C  0.24224252  0.93136482  0.05270212     1.00900
C288        C  0.14722683  0.87735764  0.99715817     1.13900
C289        C  0.26646176  0.87259326  0.11899863     1.04600
O290        O  0.35018679  0.89513987  0.07537889    -0.95000
O291        O  0.37584993  0.86778297  0.02330911    -0.90700
O292        O  0.37467192  0.86665410  0.96360573    -0.83900
C293        C  0.39053713  0.86683273  0.99317771     1.11300
O294        O  0.20448398  0.82412373  0.02885684    -0.96900
Zr295      Zr  0.25377988  0.83813777  0.00035533     1.88900
O296        O  0.32552542  0.83385517  0.93315630    -0.73600
O297        O  0.34643648  0.84811240  0.07600979    -0.52900
O298        O  0.27257688  0.81904365  0.04872854    -0.97500
O299        O  0.21925898  0.81929060  0.96189095    -0.54800
O300        O  0.29544649  0.81805305  0.97373595    -0.74100
C301        C  0.31800528  0.81921485  0.94925601     0.98200
O302        O  0.36307355  0.87035203  0.90465684    -0.62900
O303        O  0.18892146  0.90345717  0.91772039    -0.57700
O304        O  0.29666932  0.87327719  0.88471584    -0.94400
O305        O  0.23943036  0.87903985  0.88432797    -0.92800
O306        O  0.25377975  0.93557116  0.95372519    -0.93200
O307        O  0.31915987  0.92453033  0.93672596    -0.92000
C308        C  0.26849539  0.87738205  0.86889304     1.17100
H309        H  0.21114631  0.91032367  0.98604812     0.33000
H310        H  0.34673722  0.89312160  0.98776864     0.43900
H311        H  0.25496819  0.84546444  0.92600861     0.37400
H312        H  0.25733610  0.85261597  0.06698141     0.33900
H313        H  0.32969564  0.94034454  0.00645021     0.25700
H314        H  0.35608521  0.85374956  0.09733250     0.31600
H315        H  0.27375128  0.80685481  0.03870479     0.37500
H316        H  0.26658550  0.94670076  0.95890838     0.32000
H317        H  0.17294708  0.89796667  0.90064407     0.30800
H318        H  0.17320481  0.86394547  0.89297179     0.32500
H319        H  0.23451017  0.81594394  0.94217829     0.31500
H320        H  0.33099049  0.91407963  0.92632002     0.35500
H321        H  0.36164138  0.86062099  0.88719546     0.28200
H322        H  0.18324725  0.89706326  0.10156034     0.32500
H323        H  0.20903431  0.81108695  0.02847690     0.35300
H324        H  0.17373542  0.90819064  0.93635091     0.27900
H325        H  0.35827027  0.88152593  0.89149898     0.40800
H326        H  0.33321008  0.90118401  0.09063060     0.30800
H327        H  0.33841035  0.92394636  0.03056327     0.38500
H328        H  0.20213860  0.82750227  0.95135419     0.30300
H329        H  0.32767970  0.84033440  0.08471746     0.30400
H330        H  0.17357224  0.87692548  0.09542029     0.30600
Zr331      Zr  0.72495988  0.88411118  0.02723270     2.17500
O332        O  0.67730887  0.89495594  0.06312211    -0.51700
O333        O  0.72454301  0.91701193  0.02016626    -0.74900
O334        O  0.73900923  0.88556327  0.08927875    -0.81700
O335        O  0.66262226  0.86593656  0.95782298    -0.83400
O336        O  0.79403065  0.87652054  0.09865232    -0.79100
O337        O  0.66519014  0.87747099  0.01285523    -0.90700
O338        O  0.76355245  0.92544358  0.97918006    -0.76700
O339        O  0.78283193  0.89374425  0.02039102    -0.86200
O340        O  0.73178751  0.88962283  0.96623822    -0.85900
O341        O  0.75915775  0.85898968  0.04731972    -0.72600
O342        O  0.71386305  0.85560926  0.99984027    -0.84700
Zr343      Zr  0.81570012  0.84696843  0.94999604     2.26400
Zr344      Zr  0.81721826  0.86911277  0.04074640     2.06300
Zr345      Zr  0.72134223  0.86140264  0.93898537     2.10000
Zr346      Zr  0.79011702  0.89849825  0.95884277     1.78800
O347        O  0.68561827  0.83714555  0.91705653    -0.93500
O348        O  0.83797453  0.91666796  0.97939882    -0.41400
O349        O  0.77942915  0.87087981  0.92950058    -0.78000
O350        O  0.82605840  0.87502567  0.97930459    -0.96700
O351        O  0.80830137  0.84118516  0.01112611    -0.90000
O352        O  0.75779721  0.83699851  0.95667112    -0.92800
C353        C  0.74044008  0.92896136  0.00188616     1.00900
C354        C  0.64863855  0.87146976  0.98621969     1.13900
C355        C  0.76425479  0.88157432  0.10946483     1.04600
O356        O  0.85002324  0.89471125  0.06145351    -0.95000
O357        O  0.87619039  0.86258799  0.02405705    -0.90700
O358        O  0.87550436  0.85085774  0.96888526    -0.83900
C359        C  0.89118433  0.85661974  0.99640888     1.11300
O360        O  0.70161858  0.82365210  0.05454434    -0.96900
Zr361      Zr  0.75063268  0.83129657  0.01754493     1.88900
O362        O  0.82253892  0.81467384  0.95980625    -0.73600
O363        O  0.84274510  0.84883937  0.08366505    -0.52900
O364        O  0.76908995  0.82118352  0.07549185    -0.97500
O365        O  0.71315406  0.80868234  0.99181142    -0.54800
O366        O  0.78787390  0.80606553  0.00455898    -0.74100
C367        C  0.81151008  0.80295816  0.98193082     0.98200
O368        O  0.86253484  0.84141153  0.90879517    -0.62900
O369        O  0.69754410  0.88371052  0.89888167    -0.57700
O370        O  0.79804086  0.84670953  0.88756825    -0.94400
O371        O  0.74073372  0.85231697  0.88244422    -0.92800
O372        O  0.76868691  0.91404527  0.90701543    -0.93200
O373        O  0.83328729  0.90289823  0.91342715    -0.92000
C374        C  0.77018677  0.84872956  0.86956480     1.17100
H375        H  0.71596091  0.89868436  0.95805378     0.33000
H376        H  0.84871630  0.87969075  0.97486897     0.43900
H377        H  0.75361108  0.82649165  0.94262825     0.37400
H378        H  0.75397674  0.85557407  0.07107747     0.33900
H379        H  0.83275624  0.92893903  0.97108326     0.25700
H380        H  0.85391939  0.85671753  0.10110611     0.31600
H381        H  0.76459228  0.80815300  0.07581558     0.37500
H382        H  0.76173708  0.90439057  0.89080398     0.32000
H383        H  0.71321760  0.88390907  0.87842787     0.30800
H384        H  0.66973104  0.84293076  0.90016824     0.32500
H385        H  0.72775789  0.80166900  0.97561382     0.31500
H386        H  0.84409144  0.89099013  0.91068254     0.35500
H387        H  0.85533289  0.83109639  0.89431611     0.28200
H388        H  0.68633184  0.90528833  0.07645373     0.32500
H389        H  0.70348155  0.81065302  0.05929582     0.35300
H390        H  0.67613616  0.87825575  0.88986536     0.27900
H391        H  0.86281793  0.85179613  0.89256614     0.40800
H392        H  0.86069123  0.89059390  0.08365847     0.30800
H393        H  0.83506943  0.91724819  0.00517702     0.38500
H394        H  0.69745561  0.81548024  0.97626293     0.30300
H395        H  0.82301971  0.84351032  0.09632954     0.30400
H396        H  0.67286492  0.88560763  0.08100919     0.30600
Zr397      Zr  0.26071958  0.10686109  0.08975284     2.17500
O398        O  0.31388699  0.10166116  0.12219062    -0.51700
O399        O  0.26245002  0.07397391  0.08568773    -0.74900
O400        O  0.24819620  0.10336070  0.15274071    -0.81700
O401        O  0.31816755  0.12997907  0.01983249    -0.83400
O402        O  0.19109575  0.10715326  0.16100332    -0.79100
O403        O  0.31919913  0.11435131  0.07122219    -0.90700
O404        O  0.22273440  0.06481829  0.04589489    -0.76700
O405        O  0.20436164  0.09519990  0.08193552    -0.86200
O406        O  0.25424279  0.10172858  0.02818011    -0.85900
O407        O  0.22351127  0.13007315  0.11219613    -0.72600
O408        O  0.26715230  0.13543065  0.06124561    -0.84700
Zr409      Zr  0.16450760  0.14123071  0.01416916     2.26400
Zr410      Zr  0.16703897  0.11793895  0.10442306     2.06300
Zr411      Zr  0.25938340  0.13037633  0.00014183     2.10000
Zr412      Zr  0.19739076  0.09083915  0.02024418     1.78800
O413        O  0.29289757  0.15504591  0.97618405    -0.93500
O414        O  0.15013959  0.07028190  0.03206083    -0.41400
O415        O  0.20277456  0.11899572  0.99120032    -0.78000
O416        O  0.15846942  0.11247031  0.04255451    -0.96700
O417        O  0.17249903  0.14640512  0.07551156    -0.90000
O418        O  0.22099185  0.15308631  0.02065026    -0.92800
C419        C  0.24590463  0.06180752  0.06882927     1.00900
C420        C  0.33377484  0.12302410  0.04609749     1.13900
C421        C  0.22149058  0.10348700  0.17273192     1.04600
O422        O  0.13374896  0.09289166  0.12722450    -0.95000
O423        O  0.10688178  0.12213326  0.08821315    -0.90700
O424        O  0.10567680  0.13551728  0.03429899    -0.83900
C425        C  0.09101601  0.12856405  0.06136165     1.11300
O426        O  0.27928188  0.16286740  0.11879579    -0.96900
Zr427      Zr  0.22904062  0.15804871  0.08172703     1.88900
O428        O  0.15408566  0.17291297  0.02543229    -0.73600
O429        O  0.14348841  0.14008478  0.14444704    -0.52900
O430        O  0.21084757  0.17042848  0.13777932    -0.97500
O431        O  0.26636679  0.18116451  0.05716479    -0.54800
O432        O  0.19113976  0.18264733  0.06719579    -0.74100
C433        C  0.16622875  0.18506289  0.04570281     0.98200
O434        O  0.12185902  0.14504244  0.96777048    -0.62900
O435        O  0.28446818  0.10922936  0.95877118    -0.57700
O436        O  0.17957254  0.14618971  0.95186908    -0.94400
O437        O  0.23686214  0.14118248  0.94512227    -0.92800
O438        O  0.22885499  0.07762700  0.97153580    -0.93200
O439        O  0.15941871  0.08510985  0.97069520    -0.92000
C440        C  0.20727015  0.14559303  0.93325376     1.17100
H441        H  0.27130217  0.09335761  0.01985412     0.33000
H442        H  0.13638655  0.10715897  0.03806048     0.43900
H443        H  0.22362526  0.16399131  0.00723031     0.37400
H444        H  0.22801693  0.13285841  0.13646708     0.33900
H445        H  0.15792883  0.05858207  0.02286190     0.25700
H446        H  0.12707506  0.13335805  0.15930074     0.31600
H447        H  0.21769003  0.18317827  0.13679361     0.37500
H448        H  0.22804411  0.08678533  0.95270725     0.32000
H449        H  0.27909340  0.11411209  0.93521455     0.30800
H450        H  0.30729497  0.14956075  0.95768011     0.32500
H451        H  0.25122367  0.18927361  0.04356800     0.31500
H452        H  0.14195286  0.09473418  0.97183291     0.35500
H453        H  0.10881336  0.13367720  0.96700272     0.28200
H454        H  0.31339255  0.08886831  0.12890317     0.32500
H455        H  0.27973691  0.17584918  0.12381789     0.35300
H456        H  0.30962450  0.11076753  0.96116938     0.27900
H457        H  0.10537858  0.15406921  0.97659814     0.40800
H458        H  0.11597092  0.09842758  0.14228833     0.30800
H459        H  0.15019199  0.06874961  0.05788408     0.38500
H460        H  0.28012723  0.17490116  0.03914183     0.30300
H461        H  0.16276241  0.14315421  0.16026062     0.30400
H462        H  0.31179421  0.10833758  0.14448830     0.30600
Zr463      Zr  0.66853842  0.14908055  0.08671214     2.17500
O464        O  0.62162195  0.15799513  0.12538519    -0.51700
O465        O  0.66445410  0.18118179  0.07432567    -0.74900
O466        O  0.68844638  0.15451072  0.14768110    -0.81700
O467        O  0.60565359  0.12991463  0.01763217    -0.83400
O468        O  0.74466265  0.14652363  0.15201003    -0.79100
O469        O  0.60831487  0.14264831  0.07174229    -0.90700
O470        O  0.70362215  0.18923973  0.03314516    -0.76700
O471        O  0.72695171  0.15742816  0.07795361    -0.86200
O472        O  0.67507192  0.15359574  0.02492123    -0.85900
O473        O  0.70171396  0.12411142  0.10836923    -0.72600
O474        O  0.65593331  0.12122862  0.05828100    -0.84700
Zr475      Zr  0.75561438  0.10826417  0.00995827     2.26400
Zr476      Zr  0.76040149  0.13231819  0.09764638     2.06300
Zr477      Zr  0.66399200  0.12560853  0.99648337     2.10000
Zr478      Zr  0.73344327  0.16172314  0.01641323     1.78800
O479        O  0.62947506  0.10099209  0.97406534    -0.93500
O480        O  0.78020575  0.18067869  0.03677147    -0.41400
O481        O  0.72278817  0.13349321  0.98876762    -0.78000
O482        O  0.76823994  0.13705160  0.03608569    -0.96700
O483        O  0.74808894  0.10397859  0.07135603    -0.90000
O484        O  0.69657370  0.10053656  0.01724889    -0.92800
C485        C  0.67882861  0.19284171  0.05427117     1.00900
C486        C  0.59152362  0.13609759  0.04557603     1.13900
C487        C  0.71693578  0.15298241  0.16489595     1.04600
O488        O  0.80281457  0.15499413  0.11244595    -0.95000
O489        O  0.81841591  0.12363857  0.08233378    -0.90700
O490        O  0.81608065  0.11026053  0.02894039    -0.83900
C491        C  0.83269890  0.11636315  0.05562272     1.11300
O492        O  0.65260855  0.09227058  0.13051203    -0.96900
Zr493      Zr  0.68903582  0.09653082  0.07906078     1.88900
O494        O  0.74764429  0.07513926  0.01317011    -0.73600
O495        O  0.77680143  0.11156096  0.14417060    -0.52900
O496        O  0.71834505  0.07998513  0.12551383    -0.97500
O497        O  0.63365997  0.08312948  0.06512059    -0.54800
O498        O  0.70680227  0.06847768  0.05363342    -0.74100
C499        C  0.72856686  0.06386976  0.03015073     0.98200
O500        O  0.80321982  0.09644762  0.97525418    -0.62900
O501        O  0.63992456  0.14630965  0.95343491    -0.57700
O502        O  0.74377100  0.11130341  0.94702301    -0.94400
O503        O  0.68799134  0.11915454  0.93837164    -0.92800
O504        O  0.71142724  0.17420675  0.96167769    -0.93200
O505        O  0.77628514  0.16582438  0.97051387    -0.92000
C506        C  0.71793943  0.11470073  0.92695782     1.17100
H507        H  0.65947050  0.16269217  0.01647365     0.33000
H508        H  0.79149381  0.14072454  0.03098531     0.43900
H509        H  0.69000297  0.09016829  0.00374239     0.37400
H510        H  0.69773932  0.12214964  0.13309029     0.33900
H511        H  0.77906647  0.19146089  0.02163956     0.25700
H512        H  0.79272505  0.11845951  0.15920298     0.31600
H513        H  0.71130158  0.06735885  0.12247128     0.37500
H514        H  0.68797110  0.17851236  0.96714111     0.32000
H515        H  0.62132999  0.13951526  0.94181332     0.30800
H516        H  0.62212391  0.10493648  0.95038903     0.32500
H517        H  0.63629807  0.07028138  0.07087596     0.31500
H518        H  0.78318653  0.15352438  0.96394738     0.35500
H519        H  0.79457351  0.08524709  0.96470342     0.28200
H520        H  0.62852798  0.16968467  0.13529542     0.32500
H521        H  0.64979000  0.07917066  0.13319264     0.35300
H522        H  0.62797215  0.15568237  0.96702902     0.27900
H523        H  0.80644669  0.10476632  0.95524642     0.40800
H524        H  0.81033482  0.15997203  0.08959238     0.30800
H525        H  0.77271632  0.18490810  0.06015039     0.38500
H526        H  0.63217358  0.08356349  0.03919654     0.30300
H527        H  0.75583717  0.11008813  0.15862113     0.30400
H528        H  0.62227865  0.14953975  0.14541796     0.30600
Zr529      Zr  0.51791636  0.38576452  0.48034785     2.17500
O530        O  0.56630375  0.39273624  0.44180161    -0.51700
O531        O  0.51920101  0.41920397  0.48089841    -0.74900
O532        O  0.50621282  0.38214430  0.41781817    -0.81700
O533        O  0.57845867  0.37339977  0.55668650    -0.83400
O534        O  0.45157194  0.37232763  0.40974723    -0.79100
O535        O  0.57715512  0.38077764  0.49899879    -0.90700
O536        O  0.47557532  0.42913253  0.51506286    -0.76700
O537        O  0.45973634  0.39560219  0.48320679    -0.86200
O538        O  0.50899535  0.39524605  0.53911268    -0.85900
O539        O  0.48463281  0.35919887  0.46696029    -0.72600
O540        O  0.52793314  0.35927194  0.51554160    -0.84700
Zr541      Zr  0.42465235  0.35404324  0.56476979     2.26400
Zr542      Zr  0.42657555  0.36974717  0.46853674     2.06300
Zr543      Zr  0.51896227  0.36915469  0.57400740     2.10000
Zr544      Zr  0.45021943  0.40396964  0.54304297     1.78800
O545        O  0.55272628  0.34575337  0.60206085    -0.93500
O546        O  0.40330535  0.42316995  0.52330101    -0.41400
O547        O  0.46054135  0.37881364  0.57963808    -0.78000
O548        O  0.41491854  0.37960677  0.52743379    -0.96700
O549        O  0.43389329  0.34404232  0.50604445    -0.90000
O550        O  0.48279628  0.34374467  0.56260364    -0.92800
C551        C  0.50124327  0.43186006  0.49506148     1.00900
C552        C  0.59332987  0.37693409  0.52743933     1.13900
C553        C  0.48149675  0.37671401  0.39827954     1.04600
O554        O  0.39745906  0.39585991  0.44442454    -0.95000
O555        O  0.36731103  0.36414445  0.48370563    -0.90700
O556        O  0.36550225  0.35672347  0.54174253    -0.83900
C557        C  0.35104853  0.36030145  0.51200319     1.11300
O558        O  0.53942458  0.32261858  0.46923754    -0.96900
Zr559      Zr  0.49154744  0.33371926  0.50435625     1.88900
O560        O  0.41804578  0.32183449  0.56574135    -0.73600
O561        O  0.39846166  0.34921441  0.42816175    -0.52900
O562        O  0.47568703  0.31868857  0.45005484    -0.97500
O563        O  0.53179192  0.31464945  0.53639874    -0.54800
O564        O  0.45147319  0.31014448  0.52298404    -0.74100
C565        C  0.42780414  0.30880685  0.54645956     0.98200
O566        O  0.38192907  0.35079588  0.61122807    -0.62900
O567        O  0.54131039  0.39249745  0.61233246    -0.57700
O568        O  0.44036199  0.35677531  0.62733595    -0.94400
O569        O  0.49707044  0.36402967  0.63143707    -0.92800
O570        O  0.47344060  0.41823750  0.59526103    -0.93200
O571        O  0.40442812  0.41136768  0.58409869    -0.92000
C572        C  0.46801638  0.36009546  0.64487921     1.17100
H573        H  0.52434886  0.40485754  0.54538548     0.33000
H574        H  0.39221678  0.38464474  0.52961255     0.43900
H575        H  0.48649827  0.33437918  0.57970660     0.37400
H576        H  0.49072669  0.35408983  0.44468711     0.33900
H577        H  0.41098245  0.43556998  0.52793154     0.25700
H578        H  0.38966138  0.35683899  0.40883025     0.31600
H579        H  0.45025802  0.31885530  0.44988541     0.37500
H580        H  0.47040972  0.40939211  0.61442179     0.32000
H581        H  0.55653212  0.38612591  0.62904283     0.30800
H582        H  0.56548633  0.35192740  0.62095951     0.32500
H583        H  0.51942149  0.31063824  0.55769409     0.31500
H584        H  0.39782631  0.39974331  0.59465618     0.35500
H585        H  0.36766799  0.36174693  0.61004995     0.28200
H586        H  0.55818241  0.40215706  0.42544064     0.32500
H587        H  0.53731240  0.30941019  0.46926572     0.35300
H588        H  0.55717068  0.39969366  0.59769037     0.27900
H589        H  0.36651158  0.34100650  0.60369955     0.40800
H590        H  0.37904961  0.39089392  0.42941041     0.30800
H591        H  0.40345652  0.42212070  0.49741390     0.38500
H592        H  0.54968428  0.32292793  0.54511933     0.30300
H593        H  0.41725997  0.34216197  0.41748268     0.30400
H594        H  0.57021493  0.38203214  0.42706812     0.30600
Zr595      Zr  0.01790612  0.38450052  0.45421725     2.17500
O596        O  0.06669066  0.38931939  0.41494921    -0.51700
O597        O  0.01705817  0.41717433  0.44448095    -0.74900
O598        O  0.00445634  0.37904305  0.39294828    -0.81700
O599        O  0.07963463  0.37331285  0.52932990    -0.83400
O600        O  0.94822681  0.37137157  0.38696001    -0.79100
O601        O  0.07779839  0.37985793  0.47112406    -0.90700
O602        O  0.97408918  0.42921140  0.47704853    -0.76700
O603        O  0.96066603  0.39563272  0.45785862    -0.86200
O604        O  0.01269671  0.39607442  0.51211231    -0.85900
O605        O  0.98182508  0.35859249  0.44484523    -0.72600
O606        O  0.02798487  0.35940839  0.49288317    -0.84700
Zr607      Zr  0.92579085  0.35762285  0.54452154     2.26400
Zr608      Zr  0.92439591  0.37025167  0.44704544     2.06300
Zr609      Zr  0.02105742  0.37099428  0.55042795     2.10000
Zr610      Zr  0.95520988  0.40661408  0.51649515     1.78800
O611        O  0.05179807  0.34675441  0.57962389    -0.93500
O612        O  0.90401462  0.42366319  0.50074474    -0.41400
O613        O  0.96376346  0.38228128  0.55592818    -0.78000
O614        O  0.91743742  0.38254485  0.50498343    -0.96700
O615        O  0.93282829  0.34582406  0.48702964    -0.90000
O616        O  0.98295664  0.34605061  0.54268118    -0.92800
C617        C  0.99788233  0.43029065  0.45427133     1.00900
C618        C  0.09406347  0.37599997  0.49949485     1.13900
C619        C  0.97861496  0.37414312  0.37448732     1.04600
O620        O  0.89201637  0.39244489  0.41376038    -0.95000
O621        O  0.86466086  0.36788488  0.46748688    -0.90700
O622        O  0.86651163  0.36223946  0.52634565    -0.83900
C623        C  0.85029352  0.36547775  0.49764338     1.11300
O624        O  0.04105510  0.32385072  0.45456546    -0.96900
Zr625      Zr  0.98995347  0.33449947  0.48527157     1.88900
O626        O  0.91315475  0.32550231  0.54375259    -0.73600
O627        O  0.89848548  0.34483479  0.41728412    -0.52900
O628        O  0.97608053  0.31726625  0.43293128    -0.97500
O629        O  0.02117333  0.31455363  0.52488248    -0.54800
O630        O  0.94753224  0.31264248  0.50292012    -0.74100
C631        C  0.92226117  0.31225013  0.52445864     0.98200
O632        O  0.87850794  0.35634818  0.58665619    -0.62900
O633        O  0.04960520  0.39330528  0.58672086    -0.57700
O634        O  0.94282865  0.36088166  0.60627633    -0.94400
O635        O  0.99892661  0.36932758  0.60879672    -0.92800
O636        O  0.98822838  0.42743987  0.55216455    -0.93200
O637        O  0.92125877  0.41638352  0.56665687    -0.92000
C638        C  0.97009930  0.36553327  0.62299300     1.17100
H639        H  0.02930997  0.40543026  0.51618275     0.33000
H640        H  0.89553811  0.38835850  0.50764821     0.43900
H641        H  0.98616444  0.33705186  0.56066181     0.37400
H642        H  0.98635064  0.35260153  0.42308284     0.33900
H643        H  0.91005809  0.43629213  0.50550716     0.25700
H644        H  0.87970517  0.35003709  0.40298454     0.31600
H645        H  0.97624165  0.30460834  0.44068837     0.37500
H646        H  0.97949844  0.43943597  0.54553366     0.32000
H647        H  0.06772769  0.38659960  0.59943527     0.30800
H648        H  0.06056406  0.35202381  0.60168380     0.32500
H649        H  0.04537427  0.31858693  0.52389158     0.31500
H650        H  0.92825665  0.40845674  0.58626375     0.35500
H651        H  0.88416453  0.34661028  0.60339480     0.28200
H652        H  0.05925363  0.39860246  0.39795660     0.32500
H653        H  0.03936368  0.31063780  0.45416705     0.35300
H654        H  0.06232990  0.40109707  0.57017728     0.27900
H655        H  0.87963830  0.36754005  0.60045183     0.40800
H656        H  0.87770930  0.38535560  0.39742966     0.30800
H657        H  0.90278122  0.42291296  0.47483016     0.38500
H658        H  0.02109601  0.30273278  0.51324607     0.30300
H659        H  0.91583703  0.34087654  0.39996070     0.30400
H660        H  0.06917075  0.37825326  0.40094396     0.30600
Zr661      Zr  0.98698843  0.60749475  0.41838008     2.17500
O662        O  0.93655668  0.59872868  0.38432887    -0.51700
O663        O  0.98524190  0.57434951  0.41611906    -0.74900
O664        O  0.99465589  0.61232739  0.35548521    -0.81700
O665        O  0.93007223  0.62290995  0.49566956    -0.83400
O666        O  0.05010236  0.62018112  0.34479352    -0.79100
O667        O  0.92931970  0.61504806  0.43810795    -0.90700
O668        O  0.02863456  0.56262302  0.44869103    -0.76700
O669        O  0.04458831  0.59677883  0.41832519    -0.86200
O670        O  0.99695777  0.59748811  0.47687525    -0.85900
O671        O  0.02091415  0.63364259  0.40403385    -0.72600
O672        O  0.97997115  0.63339868  0.45523960    -0.84700
Zr673      Zr  0.08579398  0.63630323  0.50005443     2.26400
Zr674      Zr  0.07840419  0.62246563  0.40271009     2.06300
Zr675      Zr  0.99037771  0.62335843  0.51338314     2.10000
Zr676      Zr  0.05498883  0.58721831  0.47749003     1.78800
O677        O  0.96268425  0.64838485  0.54287392    -0.93500
O678        O  0.10182858  0.56854316  0.45614096    -0.41400
O679        O  0.04804834  0.61214165  0.51518472    -0.78000
O680        O  0.09148871  0.61121133  0.46074129    -0.96700
O681        O  0.07409571  0.64730893  0.44234787    -0.90000
O682        O  0.02843551  0.64790117  0.50111904    -0.92800
C683        C  0.00290643  0.56110955  0.42831670     1.00900
C684        C  0.91443983  0.61996088  0.46653850     1.13900
C685        C  0.01895971  0.61714075  0.33474151     1.04600
O686        O  0.11080845  0.59997538  0.37052313    -0.95000
O687        O  0.13886908  0.62692731  0.41481262    -0.90700
O688        O  0.14356549  0.63328363  0.47316079    -0.83900
C689        C  0.15648380  0.63021757  0.44249642     1.11300
O690        O  0.97031609  0.67134785  0.40885485    -0.96900
Zr691      Zr  0.01686364  0.65835533  0.44339147     1.88900
O692        O  0.09300861  0.66884019  0.50231894    -0.73600
O693        O  0.09971998  0.64770615  0.36848856    -0.52900
O694        O  0.03446357  0.67440226  0.39052145    -0.97500
O695        O  0.97509513  0.67587071  0.47655299    -0.54800
O696        O  0.05495099  0.68152983  0.46468599    -0.74100
C697        C  0.08041932  0.68241049  0.48593383     0.98200
O698        O  0.13205277  0.63855548  0.54309825    -0.62900
O699        O  0.96257734  0.60153290  0.55159526    -0.57700
O700        O  0.07403957  0.62997674  0.56307397    -0.94400
O701        O  0.01672628  0.62484570  0.57028088    -0.92800
O702        O  0.02839605  0.56927492  0.52352812    -0.93200
O703        O  0.09792437  0.57965001  0.52172602    -0.92000
C704        C  0.04734995  0.62644035  0.58217221     1.17100
H705        H  0.98106378  0.58811664  0.48331450     0.33000
H706        H  0.11401260  0.60588747  0.46151339     0.43900
H707        H  0.02640321  0.65720505  0.51854119     0.37400
H708        H  0.01432469  0.63928864  0.38238734     0.33900
H709        H  0.09583495  0.55622974  0.46362154     0.25700
H710        H  0.11486706  0.64226342  0.35057821     0.31600
H711        H  0.05565783  0.68092589  0.39696199     0.37500
H712        H  0.04006011  0.55751597  0.52223988     0.32000
H713        H  0.94528844  0.60848577  0.56487964     0.30800
H714        H  0.94201849  0.64319166  0.55410659     0.32500
H715        H  0.98517187  0.67763455  0.50011725     0.31500
H716        H  0.09643148  0.58933886  0.53931740     0.35500
H717        H  0.14612219  0.62761955  0.54008663     0.28200
H718        H  0.94473343  0.58963634  0.36741953     0.32500
H719        H  0.97329030  0.68448459  0.41032437     0.35300
H720        H  0.94890552  0.59380872  0.53586592     0.27900
H721        H  0.14687564  0.64848665  0.53489620     0.40800
H722        H  0.09321488  0.59170454  0.36116610     0.30800
H723        H  0.09900096  0.56848873  0.43031693     0.38500
H724        H  0.95550700  0.66765087  0.48045299     0.30300
H725        H  0.07958226  0.65208840  0.35509983     0.30400
H726        H  0.93044235  0.60924186  0.36969669     0.30600
Zr727      Zr  0.58302180  0.64838437  0.40439281     2.17500
O728        O  0.63213370  0.65365513  0.36589666    -0.51700
O729        O  0.58980523  0.68041873  0.41465738    -0.74900
O730        O  0.56662753  0.65306672  0.34231159    -0.81700
O731        O  0.64046922  0.63146107  0.48070077    -0.83400
O732        O  0.51012815  0.64607020  0.33526381    -0.79100
O733        O  0.64187830  0.64118651  0.42399061    -0.90700
O734        O  0.54699792  0.68985476  0.45072280    -0.76700
O735        O  0.52422599  0.65744963  0.40744712    -0.86200
O736        O  0.57205231  0.65502954  0.46472635    -0.85900
O737        O  0.54969547  0.62348000  0.38304439    -0.72600
O738        O  0.59272790  0.62143495  0.43709113    -0.84700
Zr739      Zr  0.48915866  0.61102363  0.47901046     2.26400
Zr740      Zr  0.49053371  0.63233559  0.38871996     2.06300
Zr741      Zr  0.58027394  0.62791966  0.49720065     2.10000
Zr742      Zr  0.51341330  0.66389349  0.46740483     1.78800
O743        O  0.60683650  0.60270738  0.52757747    -0.93500
O744        O  0.47310787  0.68432664  0.43901414    -0.41400
O745        O  0.52145430  0.63650484  0.49871179    -0.78000
O746        O  0.47876441  0.63915122  0.44872434    -0.96700
O747        O  0.50056925  0.60470452  0.41895475    -0.90000
O748        O  0.54839224  0.60256570  0.47695852    -0.92800
C749        C  0.57398763  0.69252540  0.43221479     1.00900
C750        C  0.65664913  0.63585754  0.45253660     1.13900
C751        C  0.53904885  0.65165978  0.32371502     1.04600
O752        O  0.44942255  0.65342878  0.36390735    -0.95000
O753        O  0.43072570  0.62584589  0.40191351    -0.90700
O754        O  0.43008514  0.61368079  0.45659150    -0.83900
C755        C  0.41488705  0.61956629  0.42880440     1.11300
O756        O  0.60321419  0.59230351  0.37084393    -0.96900
Zr757      Zr  0.55996251  0.59678487  0.41632658     1.88900
O758        O  0.49512182  0.57796672  0.47908248    -0.73600
O759        O  0.47724856  0.60955274  0.34523536    -0.52900
O760        O  0.53464466  0.57950652  0.36880229    -0.97500
O761        O  0.61146063  0.58088421  0.43536520    -0.54800
O762        O  0.53798908  0.56979547  0.44201350    -0.74100
C763        C  0.51444193  0.56615290  0.46425142     0.98200
O764        O  0.44152243  0.59867322  0.51303785    -0.62900
O765        O  0.60582406  0.64830582  0.53963670    -0.57700
O766        O  0.49561898  0.61626598  0.54226050    -0.94400
O767        O  0.54876213  0.62745894  0.55261204    -0.92800
O768        O  0.52986706  0.67636683  0.52398958    -0.93200
O769        O  0.46614499  0.67117794  0.50683136    -0.92000
C770        C  0.51872402  0.62257469  0.56297064     1.17100
H771        H  0.58729773  0.66407888  0.47373913     0.33000
H772        H  0.45558774  0.64337366  0.45186299     0.43900
H773        H  0.55331719  0.59242713  0.49186340     0.37400
H774        H  0.55513012  0.62087418  0.35889244     0.33900
H775        H  0.47381028  0.69533096  0.45339772     0.25700
H776        H  0.45611197  0.61395717  0.33358225     0.31600
H777        H  0.53729930  0.58710474  0.34764305     0.37500
H778        H  0.54709820  0.68572101  0.51863707     0.32000
H779        H  0.62457975  0.64135203  0.55075932     0.30800
H780        H  0.63120564  0.60616106  0.53060122     0.32500
H781        H  0.60608950  0.56803153  0.43243213     0.31500
H782        H  0.44538480  0.66606062  0.49574367     0.35500
H783        H  0.45208511  0.59050734  0.53049934     0.28200
H784        H  0.62736955  0.66508801  0.35360472     0.32500
H785        H  0.60311088  0.57931290  0.36582576     0.35300
H786        H  0.61762812  0.65762462  0.52565279     0.27900
H787        H  0.43217357  0.60868820  0.52701194     0.40800
H788        H  0.45296650  0.66457694  0.37736683     0.30800
H789        H  0.48433485  0.68779950  0.41668914     0.38500
H790        H  0.61240227  0.58270686  0.46106406     0.30300
H791        H  0.49535066  0.61082711  0.32714480     0.30400
H792        H  0.63084643  0.64434639  0.34751666     0.30600
Zr793      Zr  0.08676833  0.35829636  0.04285085     2.17500
O794        O  0.13584434  0.35612997  0.08258217    -0.51700
O795        O  0.09571114  0.32582433  0.04212687    -0.74900
O796        O  0.06994486  0.35665025  0.10535326    -0.81700
O797        O  0.14508799  0.37505676  0.96709393    -0.83400
O798        O  0.01214340  0.36057757  0.10812666    -0.79100
O799        O  0.14508632  0.36612108  0.02429509    -0.90700
O800        O  0.05598320  0.31325157  0.00629700    -0.76700
O801        O  0.03002777  0.34647782  0.03865941    -0.86200
O802        O  0.08039922  0.34871209  0.98336014    -0.85900
O803        O  0.04932249  0.38275860  0.05834667    -0.72600
O804        O  0.09339550  0.38430288  0.00606759    -0.84700
Zr805      Zr  0.99034648  0.38696564  0.95904600     2.26400
Zr806      Zr  0.99233471  0.37100557  0.05226000     2.06300
Zr807      Zr  0.08549918  0.37473313  0.94657878     2.10000
Zr808      Zr  0.02378192  0.33713188  0.97927107     1.78800
O809        O  0.11550440  0.39868074  0.91573798    -0.93500
O810        O  0.97945812  0.31742866  0.00253579    -0.41400
O811        O  0.02848437  0.36299045  0.94279112    -0.78000
O812        O  0.98434471  0.36031119  0.99390902    -0.96700
O813        O  0.99792378  0.39733670  0.01738083    -0.90000
O814        O  0.04759895  0.39865815  0.96134382    -0.92800
C815        C  0.08122602  0.31224958  0.02772786     1.00900
C816        C  0.16038706  0.37169684  0.99636991     1.13900
C817        C  0.04124237  0.35724690  0.12221140     1.04600
O818        O  0.95088754  0.35407386  0.08671441    -0.95000
O819        O  0.93228387  0.37222368  0.03527384    -0.90700
O820        O  0.93085907  0.38279381  0.97945129    -0.83900
C821        C  0.91602706  0.37699195  0.00748147     1.11300
O822        O  0.09016347  0.41840001  0.06986368    -0.96900
Zr823      Zr  0.05539951  0.40826163  0.02047144     1.88900
O824        O  0.99130244  0.41937236  0.94845655    -0.73600
O825        O  0.97837326  0.39770959  0.08581852    -0.52900
O826        O  0.02294295  0.42766152  0.05966104    -0.97500
O827        O  0.10538335  0.42544588  0.00156607    -0.54800
O828        O  0.03064370  0.43169824  0.98526808    -0.74100
C829        C  0.00814793  0.43270986  0.96087856     0.98200
O830        O  0.93661849  0.39215072  0.92749325    -0.62900
O831        O  0.11289328  0.35217378  0.91001944    -0.57700
O832        O  0.00094854  0.38019851  0.89810548    -0.94400
O833        O  0.05833077  0.37832841  0.88840091    -0.92800
O834        O  0.05051811  0.32149903  0.93039823    -0.93200
O835        O  0.98217800  0.32750132  0.93552546    -0.92000
C836        C  0.02690171  0.37894164  0.87758685     1.17100
H837        H  0.09739989  0.33981136  0.97745834     0.33000
H838        H  0.96230322  0.35470953  0.99061581     0.43900
H839        H  0.05176372  0.40797820  0.94427173     0.37400
H840        H  0.05349985  0.38673967  0.08204326     0.33900
H841        H  0.98746831  0.30517698  0.99705394     0.25700
H842        H  0.95873899  0.39406055  0.10070902     0.31600
H843        H  0.03055470  0.43996709  0.05390355     0.37500
H844        H  0.05388358  0.33082167  0.91219454     0.32000
H845        H  0.12927295  0.35902605  0.89533487     0.30800
H846        H  0.12509560  0.40631517  0.93450585     0.32500
H847        H  0.10063090  0.42862525  0.97679228     0.31500
H848        H  0.97125590  0.33871343  0.92719863     0.35500
H849        H  0.93761234  0.40460833  0.91870483     0.28200
H850        H  0.13183548  0.34532562  0.09713250     0.32500
H851        H  0.09163211  0.43158013  0.06755680     0.35300
H852        H  0.12766071  0.34508343  0.92598085     0.27900
H853        H  0.93714481  0.38448280  0.90638043     0.40800
H854        H  0.95243791  0.34174503  0.07742285     0.30800
H855        H  0.98157154  0.31842858  0.02834764     0.38500
H856        H  0.12439179  0.41665178  0.00037497     0.30300
H857        H  0.99767226  0.39909883  0.10252566     0.30400
H858        H  0.13361502  0.36632948  0.09893129     0.30600
Zr859      Zr  0.58186841  0.36290753  0.06200675     2.17500
O860        O  0.62931821  0.36089345  0.10373342    -0.51700
O861        O  0.58764211  0.33037440  0.06083427    -0.74900
O862        O  0.56313407  0.36294401  0.12429186    -0.81700
O863        O  0.64121844  0.37333188  0.98277000    -0.83400
O864        O  0.50811352  0.37327676  0.12822173    -0.79100
O865        O  0.64117666  0.36603803  0.04094765    -0.90700
O866        O  0.54841160  0.31961654  0.02228303    -0.76700
O867        O  0.52255738  0.35502294  0.05972114    -0.86200
O868        O  0.57220950  0.35306585  0.00306281    -0.85900
O869        O  0.55002074  0.38950637  0.07611566    -0.72600
O870        O  0.59487829  0.38727430  0.02298545    -0.84700
Zr871      Zr  0.49311001  0.39799111  0.97799613     2.26400
Zr872      Zr  0.49003583  0.38191774  0.07061497     2.06300
Zr873      Zr  0.58206297  0.37787039  0.96430728     2.10000
Zr874      Zr  0.51351432  0.34487552  0.00159597     1.78800
O875        O  0.61491816  0.39825011  0.92732573    -0.93500
O876        O  0.47313670  0.32806473  0.03797404    -0.41400
O877        O  0.52274945  0.37043238  0.96402267    -0.78000
O878        O  0.48030612  0.37140849  0.01238183    -0.96700
O879        O  0.50431572  0.40756781  0.03609897    -0.90000
O880        O  0.55281566  0.40513746  0.97883586    -0.92800
C881        C  0.57383213  0.31754166  0.04352782     1.00900
C882        C  0.65657541  0.36944492  0.01170378     1.13900
C883        C  0.53582679  0.36719222  0.14167839     1.04600
O884        O  0.44865868  0.36420367  0.10365714    -0.95000
O885        O  0.43050664  0.38666770  0.05204659    -0.90700
O886        O  0.43297904  0.39550435  0.99508261    -0.83900
C887        C  0.41627512  0.39101487  0.02275285     1.11300
O888        O  0.61426220  0.41849123  0.07603260    -0.96900
Zr889      Zr  0.56468520  0.41366188  0.03811838     1.88900
O890        O  0.49393781  0.43122491  0.98186570    -0.73600
O891        O  0.47462373  0.40876461  0.10307824    -0.52900
O892        O  0.55076474  0.43014543  0.09127192    -0.97500
O893        O  0.61077661  0.43062064  0.01017564    -0.54800
O894        O  0.53754140  0.44014280  0.01713671    -0.74100
C895        C  0.51174312  0.44338517  0.99753319     0.98200
O896        O  0.45499784  0.41021365  0.93283730    -0.62900
O897        O  0.60446876  0.35294223  0.93013629    -0.57700
O898        O  0.49989926  0.39153926  0.91629340    -0.94400
O899        O  0.55225000  0.37887869  0.90755526    -0.92800
O900        O  0.52762863  0.32895651  0.94783957    -0.93200
O901        O  0.46484327  0.33339995  0.96821856    -0.92000
C902        C  0.52255855  0.38417154  0.89678039     1.17100
H903        H  0.58740954  0.34342700  0.99650391     0.33000
H904        H  0.45739890  0.36700146  0.00871009     0.43900
H905        H  0.55788489  0.41456621  0.96221431     0.37400
H906        H  0.55521773  0.39354770  0.09951304     0.33900
H907        H  0.47463449  0.31562305  0.02927160     0.25700
H908        H  0.45257215  0.40574150  0.11462756     0.31600
H909        H  0.56239513  0.44183817  0.08841597     0.37500
H910        H  0.52302532  0.33762766  0.92869324     0.32000
H911        H  0.58437615  0.34795997  0.91760649     0.30800
H912        H  0.61966747  0.40870353  0.94240366     0.32500
H913        H  0.60947128  0.44266041  0.02085574     0.31500
H914        H  0.44455699  0.34010187  0.97672176     0.35500
H915        H  0.43701670  0.40106640  0.92888347     0.28200
H916        H  0.62442451  0.35030063  0.11859893     0.32500
H917        H  0.63178838  0.40987984  0.06771254     0.35300
H918        H  0.61848040  0.35863547  0.91150893     0.27900
H919        H  0.44268169  0.42030010  0.94399386     0.40800
H920        H  0.45331400  0.35169079  0.09668757     0.30800
H921        H  0.48367792  0.32749119  0.06160146     0.38500
H922        H  0.60327615  0.43250404  0.98562637     0.30300
H923        H  0.49145350  0.40932124  0.12253209     0.30400
H924        H  0.62680653  0.37132481  0.11948641     0.30600
Zr925      Zr  0.52440491  0.62319566  0.98815953     2.17500
O926        O  0.57402195  0.61701328  0.02553382    -0.51700
O927        O  0.52081806  0.59011155  0.99528767    -0.74900
O928        O  0.51316293  0.62974427  0.05063450    -0.81700
O929        O  0.58372199  0.63057325  0.90744529    -0.83400
O930        O  0.45754133  0.63851219  0.05736233    -0.79100
O931        O  0.58353537  0.62488111  0.96617507    -0.90700
O932        O  0.47964667  0.57953297  0.95861685    -0.76700
O933        O  0.46598532  0.61380257  0.98579221    -0.86200
O934        O  0.51508803  0.61270635  0.92992383    -0.85900
O935        O  0.49189862  0.65029793  0.99858190    -0.72600
O936        O  0.53558037  0.64818564  0.94916684    -0.84700
Zr937      Zr  0.43164296  0.65404715  0.90046227     2.26400
Zr938      Zr  0.43349925  0.64035562  0.99790939     2.06300
Zr939      Zr  0.52503723  0.63747134  0.89130640     2.10000
Zr940      Zr  0.45647605  0.60407093  0.92677078     1.78800
O941        O  0.56297166  0.65989081  0.86579760    -0.93500
O942        O  0.40527098  0.58890485  0.94842693    -0.41400
O943        O  0.46632798  0.62828136  0.88737974    -0.78000
O944        O  0.42176863  0.62921117  0.93982785    -0.96700
O945        O  0.44263991  0.66492086  0.95814595    -0.90000
O946        O  0.49031141  0.66360684  0.90103256    -0.92800
C947        C  0.50264458  0.57734278  0.98201193     1.00900
C948        C  0.59890131  0.62720348  0.93657987     1.13900
C949        C  0.48778541  0.63526741  0.06952613     1.04600
O950        O  0.40190244  0.61655872  0.02737079    -0.95000
O951        O  0.37388573  0.64547506  0.98263875    -0.90700
O952        O  0.37231688  0.65180763  0.92410725    -0.83900
C953        C  0.35762138  0.64867693  0.95399077     1.11300
O954        O  0.55012345  0.68376677  0.99360404    -0.96900
Zr955      Zr  0.50092613  0.67441849  0.95851240     1.88900
O956        O  0.42469396  0.68663964  0.90132388    -0.73600
O957        O  0.40960170  0.66457140  0.03289960    -0.52900
O958        O  0.48525850  0.69243086  0.00929533    -0.97500
O959        O  0.54226728  0.69214395  0.92514120    -0.54800
O960        O  0.46366249  0.69857465  0.93873480    -0.74100
C961        C  0.43754381  0.69987669  0.91832340     0.98200
O962        O  0.38880063  0.65797333  0.85433922    -0.62900
O963        O  0.54252218  0.61351934  0.85181841    -0.57700
O964        O  0.44682860  0.64921348  0.83773246    -0.94400
O965        O  0.50392067  0.64272005  0.83303430    -0.92800
O966        O  0.48281429  0.58375997  0.88477713    -0.93200
O967        O  0.41625069  0.59540517  0.88095116    -0.92000
C968        C  0.47429115  0.64574638  0.81978714     1.17100
H969        H  0.53021108  0.60280389  0.92476490     0.33000
H970        H  0.39899086  0.62427504  0.93799965     0.43900
H971        H  0.49422372  0.67259623  0.88322407     0.37400
H972        H  0.49751510  0.65611493  0.02026606     0.33900
H973        H  0.41036562  0.57598327  0.94611976     0.25700
H974        H  0.39847925  0.65857065  0.05312797     0.31600
H975        H  0.46003007  0.69394274  0.00768107     0.37500
H976        H  0.48671182  0.59115856  0.86355606     0.32000
H977        H  0.56125903  0.61875664  0.83753381     0.30800
H978        H  0.57497933  0.65359733  0.84653672     0.32500
H979        H  0.53070044  0.69531951  0.90284955     0.31500
H980        H  0.40520269  0.60676038  0.87362760     0.35500
H981        H  0.37429043  0.64711492  0.85524888     0.28200
H982        H  0.56610830  0.60797927  0.04279632     0.32500
H983        H  0.55007732  0.69701440  0.99295776     0.35300
H984        H  0.55407913  0.60450810  0.86681840     0.27900
H985        H  0.37368923  0.66779734  0.86242025     0.40800
H986        H  0.38689184  0.62283071  0.04432894     0.30800
H987        H  0.40521269  0.59114804  0.97400571     0.38500
H988        H  0.56048526  0.68356233  0.91842306     0.30300
H989        H  0.42978021  0.67072055  0.04307425     0.30400
H990        H  0.57789855  0.62802598  0.03936217     0.30600
Zr991      Zr  0.92954459  0.63689101  0.99716417     2.17500
O992        O  0.87811379  0.63604290  0.03370346    -0.51700
O993        O  0.91839018  0.66880551  0.99305323    -0.74900
O994        O  0.94316040  0.64049460  0.06051521    -0.81700
O995        O  0.87595715  0.62242796  0.91679014    -0.83400
O996        O  0.00085544  0.63731377  0.06772542    -0.79100
O997        O  0.87187839  0.63196131  0.97332293    -0.90700
O998        O  0.95322765  0.68098981  0.95163888    -0.76700
O999        O  0.98437998  0.65094503  0.99254489    -0.86200
O1000       O  0.93701764  0.64393885  0.93629022    -0.85900
O1001       O  0.96979051  0.61476825  0.01770952    -0.72600
O1002       O  0.92592120  0.60934361  0.96477475    -0.84700
Zr1003     Zr  0.03190771  0.60785230  0.92252290     2.26400
Zr1004     Zr  0.02517315  0.62882845  0.01198827     2.06300
Zr1005     Zr  0.93629466  0.61644070  0.90411186     2.10000
Zr1006     Zr  0.99176974  0.65756535  0.93176015     1.78800
O1007       O  0.90967450  0.58825006  0.88734949    -0.93500
O1008       O  0.03154228  0.68034481  0.95230251    -0.41400
O1009       O  0.99166729  0.62984203  0.90107697    -0.78000
O1010       O  0.03379714  0.63638993  0.95172243    -0.96700
O1011       O  0.02295357  0.60055059  0.98245674    -0.90000
O1012       O  0.97616211  0.59457291  0.92465866    -0.92800
C1013       C  0.92881382  0.68195649  0.97417655     1.00900
C1014       C  0.85857199  0.62736657  0.94374174     1.13900
C1015       C  0.97057506  0.64012422  0.07971112     1.04600
O1016       O  0.05458699  0.65569987  0.03177617    -0.95000
O1017       O  0.08641008  0.62683924  0.99910568    -0.90700
O1018       O  0.08947474  0.61531358  0.94419225    -0.83900
C1019       C  0.10326482  0.62206217  0.97173944     1.11300
O1020       O  0.92399060  0.58040170  0.02971331    -0.96900
Zr1021     Zr  0.96668935  0.58771327  0.98496923     1.88900
O1022       O  0.03604563  0.57497191  0.92110800    -0.73600
O1023       O  0.05177264  0.60934901  0.05558800    -0.52900
O1024       O  0.99584818  0.57291360  0.03370018    -0.97500
O1025       O  0.92523305  0.56655029  0.96096554    -0.54800
O1026       O  0.99717090  0.56321494  0.95922846    -0.74100
C1027       C  0.02071935  0.56175596  0.93610127     0.98200
O1028       O  0.07967964  0.60017245  0.88373270    -0.62900
O1029       O  0.90945404  0.63086439  0.85367907    -0.57700
O1030       O  0.02449412  0.61223280  0.86036655    -0.94400
O1031       O  0.96739520  0.61318362  0.84804506    -0.92800
O1032       O  0.96644026  0.66888164  0.87752250    -0.93200
O1033       O  0.03326735  0.66677352  0.88740815    -0.92000
C1034       C  0.99931612  0.61278885  0.83880556     1.17100
H1035       H  0.91899154  0.65179464  0.92805482     0.33000
H1036       H  0.05531446  0.64247863  0.94831812     0.43900
H1037       H  0.97434302  0.58421293  0.90974659     0.37400
H1038       H  0.96537533  0.61128858  0.04169803     0.33900
H1039       H  0.02397456  0.69151233  0.94055509     0.25700
H1040       H  0.06133482  0.61758524  0.07339141     0.31600
H1041       H  0.99408740  0.55995552  0.02870943     0.37500
H1042       H  0.94205659  0.67135973  0.88308974     0.32000
H1043       H  0.88743158  0.62452290  0.84996604     0.30800
H1044       H  0.91986397  0.58538455  0.86422935     0.32500
H1045       H  0.92566403  0.55609273  0.97698351     0.31500
H1046       H  0.03991848  0.65553191  0.87550294     0.35500
H1047       H  0.09284862  0.61131260  0.87953207     0.28200
H1048       H  0.88015298  0.64603962  0.05055458     0.32500
H1049       H  0.92913464  0.56800910  0.03732786     0.35300
H1050       H  0.90298802  0.64293791  0.86196061     0.27900
H1051       H  0.09524367  0.59223997  0.89727118     0.40800
H1052       H  0.06465973  0.66097817  0.01024276     0.30800
H1053       H  0.02553539  0.68205869  0.97730180     0.38500
H1054       H  0.90244651  0.57214033  0.96467612     0.30300
H1055       H  0.03226339  0.60340458  0.06753260     0.30400
H1056       H  0.88025639  0.62500761  0.04793524     0.30600
C1057       C  0.63692469  0.62698005  0.93616934     0.01000
C1058       C  0.65504402  0.61410044  0.91644437     0.03800
C1059       C  0.69126961  0.61454553  0.91512862    -0.12300
C1060       C  0.70950769  0.62785270  0.93350471     0.23100
C1061       C  0.69131552  0.64110418  0.95207526    -0.12900
C1062       C  0.65517763  0.64058002  0.95367813     0.04500
C1063       C  0.74776110  0.62737010  0.93515525     0.26900
C1064       C  0.76412283  0.61807871  0.96272462    -0.13500
C1065       C  0.80026462  0.61770993  0.96496147     0.05000
C1066       C  0.82041238  0.62744372  0.94066896    -0.09500
C1067       C  0.80385967  0.63691534  0.91319577     0.05800
C1068       C  0.76773072  0.63647106  0.90996961    -0.13900
Br1069     Br  0.71606798  0.66021153  0.97467748    -0.05900
Br1070     Br  0.63031992  0.59550434  0.89221248    -0.00300
Br1071     Br  0.82200766  0.60283226  0.00003071     0.00100
Br1072     Br  0.74535177  0.64821680  0.87098106    -0.04300
Br1073     Br  0.63050944  0.65894588  0.97879872     0.00200
Br1074     Br  0.71610454  0.59709835  0.88788720    -0.03600
Br1075     Br  0.73670243  0.60586202  0.99754132    -0.04400
Br1076     Br  0.83016149  0.65141548  0.88103085    -0.00500
C1077       C  0.31955097  0.64664750  0.95538490     0.01000
C1078       C  0.30319764  0.63423326  0.93292845     0.03800
C1079       C  0.26821114  0.62998441  0.93764001    -0.12300
C1080       C  0.24886500  0.63839422  0.96412023     0.23100
C1081       C  0.26489016  0.65081297  0.98648714    -0.12900
C1082       C  0.30014815  0.65478945  0.98246983     0.04500
C1083       C  0.21140102  0.63452501  0.96751352     0.26900
C1084       C  0.18770568  0.64406870  0.94669320    -0.13500
C1085       C  0.15256155  0.63964149  0.94759763     0.05000
C1086       C  0.14056359  0.62604868  0.97036815    -0.09500
C1087       C  0.16413398  0.61677708  0.99186617     0.05800
C1088       C  0.19950384  0.62097140  0.99037189    -0.13900
Br1089     Br  0.23837690  0.66199888  0.02316781    -0.05900
Br1090     Br  0.32901367  0.62170425  0.89735291    -0.00300
Br1091     Br  0.12090813  0.65242188  0.91758738     0.00100
Br1092     Br  0.23178839  0.60827882  0.01967066    -0.04300
Br1093     Br  0.32155713  0.67141480  0.01434770     0.00200
Br1094     Br  0.24696730  0.61184236  0.90898242    -0.03600
Br1095     Br  0.20350344  0.66356778  0.91752448    -0.04400
Br1096     Br  0.14805943  0.59777442  0.02198057    -0.00500
C1097       C  0.50272664  0.46266847  0.99450533     0.01000
C1098       C  0.50291966  0.47166958  0.96188259     0.03800
C1099       C  0.50301144  0.49060617  0.96078010    -0.12300
C1100       C  0.50467429  0.50055681  0.99222872     0.23100
C1101       C  0.50310364  0.49153158  0.02468037    -0.12900
C1102       C  0.50056150  0.47279044  0.02571157     0.04500
C1103       C  0.50572514  0.52052448  0.99177041     0.26900
C1104       C  0.53672997  0.52987569  0.98557603    -0.13500
C1105       C  0.53707303  0.54881954  0.98536359     0.05000
C1106       C  0.50683985  0.55843697  0.99327029    -0.09500
C1107       C  0.47681031  0.54890990  0.00253670     0.05800
C1108       C  0.47572629  0.53018468  0.99986844    -0.13900
Br1109     Br  0.50558452  0.50486990  0.06796257    -0.05900
Br1110     Br  0.50463872  0.45816323  0.91893415    -0.00300
Br1111     Br  0.57809106  0.56153981  0.97185002     0.00100
Br1112     Br  0.43247325  0.51778911  0.00491975    -0.04300
Br1113     Br  0.49287433  0.46094972  0.07014082     0.00200
Br1114     Br  0.50093555  0.50298180  0.91636335    -0.03600
Br1115     Br  0.57828887  0.51669561  0.97611175    -0.04400
Br1116     Br  0.43669932  0.56167262  0.01863594    -0.00500
C1117       C  0.69471973  0.36940462  0.01130620     0.01000
C1118       C  0.71338059  0.35444587  0.02377250     0.03800
C1119       C  0.74965795  0.35470595  0.02367271    -0.12300
C1120       C  0.76741385  0.36942464  0.00915276     0.23100
C1121       C  0.74878437  0.38404500  0.99558677    -0.12900
C1122       C  0.71270844  0.38434738  0.99782938     0.04500
C1123       C  0.80566343  0.37015559  0.00943287     0.26900
C1124       C  0.82280223  0.37789778  0.03814659    -0.13500
C1125       C  0.85856681  0.38071849  0.03693051     0.05000
C1126       C  0.87792745  0.37492863  0.00764649    -0.09500
C1127       C  0.86077176  0.36632291  0.97955843     0.05800
C1128       C  0.82466911  0.36452216  0.98000214    -0.13900
Br1129     Br  0.77299175  0.40372087  0.97387090    -0.05900
Br1130     Br  0.68938982  0.33322430  0.03927884    -0.00300
Br1131     Br  0.88035078  0.39357712  0.07474240     0.00100
Br1132     Br  0.80086902  0.35479169  0.93992307    -0.04300
Br1133     Br  0.68841202  0.40592017  0.98493141     0.00200
Br1134     Br  0.77512205  0.33506808  0.04385206    -0.03600
Br1135     Br  0.79686313  0.38497282  0.07898930    -0.04400
Br1136     Br  0.88640619  0.35575091  0.94149835    -0.00500
C1137       C  0.19809438  0.37493445  0.99850606     0.01000
C1138       C  0.21178699  0.38573172  0.02556772     0.03800
C1139       C  0.24750807  0.38861811  0.02787876    -0.12300
C1140       C  0.26984908  0.38110365  0.00281277     0.23100
C1141       C  0.25625190  0.37073902  0.97527090    -0.12900
C1142       C  0.22065097  0.36730920  0.97360240     0.04500
C1143       C  0.30769269  0.38349348  0.00659444     0.26900
C1144       C  0.32326291  0.39993075  0.99769452    -0.13500
C1145       C  0.35840436  0.40276901  0.00468727     0.05000
C1146       C  0.37860925  0.38887150  0.01907242    -0.09500
C1147       C  0.36337661  0.37204627  0.02598005     0.05800
C1148       C  0.32793222  0.36952275  0.02055534    -0.13900
Br1149     Br  0.28659150  0.36124697  0.93981842    -0.05900
Br1150     Br  0.18183084  0.39707700  0.05924467    -0.00300
Br1151     Br  0.37858771  0.42589563  0.99549491     0.00100
Br1152     Br  0.30711928  0.34676971  0.03190395    -0.04300
Br1153     Br  0.20342568  0.35088888  0.93890577     0.00200
Br1154     Br  0.26611689  0.40278555  0.06571351    -0.03600
Br1155     Br  0.29648946  0.41836328  0.97502368    -0.04400
Br1156     Br  0.39123479  0.35184925  0.04010360    -0.00500
C1157       C  0.00308138  0.45064915  0.94601537     0.01000
C1158       C  0.01956918  0.45530385  0.91433241     0.03800
C1159       C  0.02576690  0.47341721  0.90633129    -0.12300
C1160       C  0.01429587  0.48684152  0.92940999     0.23100
C1161       C  0.99507490  0.48215530  0.95949907    -0.12900
C1162       C  0.98976814  0.46407556  0.96788832     0.04500
C1163       C  0.02333060  0.50586724  0.92341023     0.26900
C1164       C  0.04837052  0.51402724  0.94481006    -0.13500
C1165       C  0.05022023  0.53278920  0.94660529     0.05000
C1166       C  0.02850049  0.54332593  0.92546120    -0.09500
C1167       C  0.00689004  0.53508653  0.90059158     0.05800
C1168       C  0.00381902  0.51634972  0.89997145    -0.13900
Br1169     Br  0.97785399  0.50046839  0.99052625    -0.05900
Br1170     Br  0.03608360  0.43684953  0.88338322    -0.00300
Br1171     Br  0.07967330  0.54412598  0.98058478     0.00100
Br1172     Br  0.97071217  0.50514940  0.86939706    -0.04300
Br1173     Br  0.96592756  0.45747670  0.01046102     0.00200
Br1174     Br  0.05244713  0.47979935  0.86551181    -0.03600
Br1175     Br  0.07822855  0.49943578  0.97349659    -0.04400
Br1176     Br  0.97892056  0.54957012  0.86982566    -0.00500
C1177       C  0.49518104  0.64026140  0.10663034     0.01000
C1178       C  0.51893496  0.65416573  0.11360673     0.03800
C1179       C  0.52732470  0.65878269  0.14838701    -0.12300
C1180       C  0.51206186  0.64962417  0.17662785     0.23100
C1181       C  0.48671901  0.63656083  0.16992482    -0.12900
C1182       C  0.47816825  0.63193560  0.13504313     0.04500
C1183       C  0.52414531  0.65279086  0.21324513     0.26900
C1184       C  0.54912310  0.64133547  0.22799749    -0.13500
C1185       C  0.55723956  0.64244630  0.26394283     0.05000
C1186       C  0.54025123  0.65496085  0.28543794    -0.09500
C1187       C  0.51749280  0.66745504  0.27005150     0.05800
C1188       C  0.50957945  0.66643579  0.23396181    -0.13900
Br1189     Br  0.46400228  0.62499222  0.20888309    -0.05900
Br1190     Br  0.53915220  0.66768967  0.07573501    -0.00300
Br1191     Br  0.58880809  0.62543531  0.28444833     0.00100
Br1192     Br  0.47749887  0.68306748  0.21322310    -0.04300
Br1193     Br  0.44388193  0.61390381  0.12634382     0.00200
Br1194     Br  0.55979056  0.67771606  0.15757339    -0.03600
Br1195     Br  0.57051092  0.62327125  0.19928574    -0.04400
Br1196     Br  0.49610668  0.68544469  0.29896119    -0.00500
C1197       C  0.50981585  0.62524908  0.60073920     0.01000
C1198       C  0.47743018  0.63245036  0.61053553     0.03800
C1199       C  0.46981464  0.63570160  0.64613215    -0.12300
C1200       C  0.49447720  0.63222456  0.67226578     0.23100
C1201       C  0.52667296  0.62507117  0.66279644    -0.12900
C1202       C  0.53431779  0.62150579  0.62730477     0.04500
C1203       C  0.48651910  0.63629190  0.70969350     0.26900
C1204       C  0.49359732  0.65337887  0.72351294    -0.13500
C1205       C  0.48670553  0.65708942  0.75913446     0.05000
C1206       C  0.47257033  0.64377109  0.78113447    -0.09500
C1207       C  0.46470959  0.62684213  0.76696073     0.05800
C1208       C  0.47161069  0.62311978  0.73139478    -0.13900
Br1209     Br  0.56043095  0.62023817  0.69869494    -0.05900
Br1210     Br  0.44391798  0.63940509  0.57569117    -0.00300
Br1211     Br  0.49768367  0.68022143  0.77827470     0.00100
Br1212     Br  0.46210215  0.59971426  0.71256104    -0.04300
Br1213     Br  0.57830257  0.61100438  0.61573324     0.00200
Br1214     Br  0.42561501  0.64529519  0.65950071    -0.03600
Br1215     Br  0.51403952  0.67140260  0.69376588    -0.04400
Br1216     Br  0.44666404  0.60830765  0.79702576    -0.00500
C1217       C  0.69483632  0.63413428  0.45294095     0.01000
C1218       C  0.71457127  0.64319755  0.47850267     0.03800
C1219       C  0.75056150  0.64117385  0.47953498    -0.12300
C1220       C  0.76716184  0.62970066  0.45573762     0.23100
C1221       C  0.74776426  0.62060971  0.43021439    -0.12900
C1222       C  0.71173193  0.62275546  0.42883696     0.04500
C1223       C  0.80500099  0.62701490  0.45812645     0.26900
C1224       C  0.82737964  0.63798577  0.43856869    -0.13500
C1225       C  0.86320486  0.63591134  0.44191097     0.05000
C1226       C  0.87686515  0.62282890  0.46486273    -0.09500
C1227       C  0.85445365  0.61187526  0.48445544     0.05800
C1228       C  0.81861394  0.61379240  0.48070110    -0.13900
Br1229     Br  0.77092422  0.60509412  0.39743967    -0.05900
Br1230     Br  0.69278474  0.65851558  0.51235940    -0.00300
Br1231     Br  0.89353563  0.65146809  0.41588127     0.00100
Br1232     Br  0.78801050  0.59785826  0.50539786    -0.04300
Br1233     Br  0.68551105  0.60895740  0.39561146     0.00200
Br1234     Br  0.77751814  0.65424247  0.51342839    -0.03600
Br1235     Br  0.80871776  0.65562476  0.40672801    -0.04400
Br1236     Br  0.87283365  0.59381350  0.51549711    -0.00500
C1237       C  0.37664054  0.62061477  0.42882407     0.01000
C1238       C  0.35933843  0.62872602  0.45736811     0.03800
C1239       C  0.32333936  0.63057347  0.45694581    -0.12300
C1240       C  0.30424751  0.62486810  0.42770862     0.23100
C1241       C  0.32137657  0.61757000  0.39848826    -0.12900
C1242       C  0.35733608  0.61503901  0.39933247     0.04500
C1243       C  0.26604336  0.62583923  0.42890640     0.26900
C1244       C  0.24737500  0.61185310  0.44482435    -0.13500
C1245       C  0.21172214  0.61358150  0.45020398     0.05000
C1246       C  0.19430609  0.62912161  0.43881225    -0.09500
C1247       C  0.21262998  0.64255002  0.42063016     0.05800
C1248       C  0.24854493  0.64110909  0.41642552    -0.13900
Br1249     Br  0.29546090  0.61147321  0.35707817    -0.05900
Br1250     Br  0.38457350  0.63854734  0.49640435    -0.00300
Br1251     Br  0.18648486  0.59419257  0.47157480     0.00100
Br1252     Br  0.27394309  0.65996209  0.39352558    -0.04300
Br1253     Br  0.37961248  0.60301356  0.36079491     0.00200
Br1254     Br  0.29982925  0.64137347  0.49621197    -0.03600
Br1255     Br  0.27081943  0.59017110  0.45862061    -0.04400
Br1256     Br  0.18845655  0.66265309  0.40060384    -0.00500
C1257       C  0.96822082  0.64147657  0.11873630     0.01000
C1258       C  0.99285716  0.65177096  0.13706056     0.03800
C1259       C  0.99956846  0.64841191  0.17288040    -0.12300
C1260       C  0.98071818  0.63526226  0.19113826     0.23100
C1261       C  0.95318002  0.62664226  0.17414779    -0.12900
C1262       C  0.94715211  0.62954492  0.13800552     0.04500
C1263       C  0.99017619  0.63031942  0.22795619     0.26900
C1264       C  0.01496625  0.61688616  0.23450921    -0.13500
C1265       C  0.02428027  0.61236991  0.26930969     0.05000
C1266       C  0.00901736  0.62132169  0.29783125    -0.09500
C1267       C  0.98353782  0.63449602  0.29114017     0.05800
C1268       C  0.97428988  0.63895973  0.25640555    -0.13900
Br1269     Br  0.92453603  0.61033440  0.20039016    -0.05900
Br1270     Br  0.01730069  0.67063102  0.11300097    -0.00300
Br1271     Br  0.05624043  0.59315208  0.27807818     0.00100
Br1272     Br  0.93969330  0.65695468  0.24749029    -0.04300
Br1273     Br  0.91176553  0.61595399  0.11493888     0.00200
Br1274     Br  0.03543658  0.66134245  0.19680999    -0.03600
Br1275     Br  0.03580941  0.60453984  0.19559762    -0.04400
Br1276     Br  0.96140497  0.64693780  0.32932555    -0.00500
C1277       C  0.05088771  0.62290422  0.62038994     0.01000
C1278       C  0.03548630  0.60728584  0.63440242     0.03800
C1279       C  0.02958495  0.60567950  0.67060600    -0.12300
C1280       C  0.04146708  0.61901095  0.69355453     0.23100
C1281       C  0.06063554  0.63354348  0.68015502    -0.12900
C1282       C  0.06432463  0.63583687  0.64351165     0.04500
C1283       C  0.03193266  0.61804863  0.73130058     0.26900
C1284       C  0.00547733  0.62906873  0.74441603    -0.13500
C1285       C  0.99522791  0.62762987  0.77972191     0.05000
C1286       C  0.00868901  0.61387099  0.80116195    -0.09500
C1287       C  0.03440186  0.60241331  0.78751423     0.05800
C1288       C  0.04707583  0.60508728  0.75331915    -0.13900
Br1289     Br  0.08128638  0.65032209  0.71216359    -0.05900
Br1290     Br  0.02253076  0.58780405  0.60407292    -0.00300
Br1291     Br  0.96540048  0.64567529  0.79914170     0.00100
Br1292     Br  0.08508282  0.59090906  0.73633355    -0.04300
Br1293     Br  0.08509569  0.65730958  0.62520193     0.00200
Br1294     Br  0.00354855  0.58558644  0.68857447    -0.03600
Br1295     Br  0.98241516  0.64580332  0.71371527    -0.04400
Br1296     Br  0.05131268  0.58236841  0.81463209    -0.00500
C1297       C  0.98629465  0.36957296  0.33743840     0.01000
C1298       C  0.01203890  0.35663914  0.33029983     0.03800
C1299       C  0.02195824  0.35304993  0.29556559    -0.12300
C1300       C  0.00695401  0.36257744  0.26766921     0.23100
C1301       C  0.98054766  0.37507182  0.27446171    -0.12900
C1302       C  0.97012143  0.37851957  0.30930984     0.04500
C1303       C  0.01934955  0.35947787  0.23127458     0.26900
C1304       C  0.04707676  0.36951434  0.21778600    -0.13500
C1305       C  0.05776397  0.36716730  0.18271765     0.05000
C1306       C  0.04017222  0.35501596  0.16084258    -0.09500
C1307       C  0.01452687  0.34387109  0.17548026     0.05800
C1308       C  0.00411490  0.34612895  0.21052891    -0.13900
Br1309     Br  0.95898709  0.38750735  0.23589008    -0.05900
Br1310     Br  0.03397592  0.34346329  0.36784862    -0.00300
Br1311     Br  0.09485221  0.38150653  0.16432868     0.00100
Br1312     Br  0.96811846  0.33138296  0.22994446    -0.04300
Br1313     Br  0.93516118  0.39614937  0.31864280     0.00200
Br1314     Br  0.05607554  0.33492600  0.28582299    -0.03600
Br1315     Br  0.06919852  0.38708788  0.24706901    -0.04400
Br1316     Br  0.99294599  0.32573716  0.14701647    -0.00500
C1317       C  0.01863714  0.37749673  0.83943927     0.01000
C1318       C  0.98873194  0.38613038  0.82635225     0.03800
C1319       C  0.97523337  0.38149682  0.79357092    -0.12300
C1320       C  0.99488090  0.37118836  0.77039913     0.23100
C1321       C  0.02628320  0.36373271  0.78171687    -0.12900
C1322       C  0.03712986  0.36597052  0.81676790     0.04500
C1323       C  0.98422140  0.36998211  0.73318749     0.26900
C1324       C  0.97109986  0.35388549  0.71941008    -0.13500
C1325       C  0.96411466  0.35254292  0.68325746     0.05000
C1326       C  0.96909735  0.36750439  0.66128721    -0.09500
C1327       C  0.97937689  0.38400462  0.67570203     0.05800
C1328       C  0.98763657  0.38515801  0.71139078    -0.13900
Br1329     Br  0.05430995  0.35044233  0.74906785    -0.05900
Br1330     Br  0.96817698  0.40611322  0.85032596    -0.00300
Br1331     Br  0.95070125  0.32990806  0.66346537     0.00100
Br1332     Br  0.00542501  0.40735766  0.72989040    -0.04300
Br1333     Br  0.07605982  0.35235824  0.83312198     0.00200
Br1334     Br  0.92946701  0.38904363  0.78039055    -0.03600
Br1335     Br  0.96376907  0.33361552  0.74994262    -0.04400
Br1336     Br  0.98303444  0.40503596  0.64619520    -0.00500
C1337       C  0.00224895  0.44823362  0.43913709     0.01000
C1338       C  0.02344107  0.46053259  0.45670681     0.03800
C1339       C  0.01911160  0.47900376  0.45101749    -0.12300
C1340       C  0.99447885  0.48521885  0.42663245     0.23100
C1341       C  0.97426868  0.47287207  0.40794273    -0.12900
C1342       C  0.97780885  0.45441726  0.41458610     0.04500
C1343       C  0.99056895  0.50477496  0.42069864     0.26900
C1344       C  0.96728712  0.51479873  0.44109301    -0.13500
C1345       C  0.96895498  0.53364165  0.44088995     0.05000
C1346       C  0.99349878  0.54249568  0.41987172    -0.09500
C1347       C  0.01522437  0.53241987  0.39780757     0.05800
C1348       C  0.01338925  0.51361454  0.39785723    -0.13900
Br1349     Br  0.94055763  0.48135111  0.37475724    -0.05900
Br1350     Br  0.05665881  0.45198698  0.49047672    -0.00300
Br1351     Br  0.94076727  0.54727739  0.47276295     0.00100
Br1352     Br  0.04368711  0.49973324  0.36847924    -0.04300
Br1353     Br  0.94748898  0.43754012  0.39211529     0.00200
Br1354     Br  0.04513237  0.49588488  0.47851659    -0.03600
Br1355     Br  0.93486040  0.50263435  0.47110443    -0.04400
Br1356     Br  0.04995505  0.54432010  0.37021740    -0.00500
C1357       C  0.63155750  0.37598411  0.52580605     0.01000
C1358       C  0.65026669  0.38877900  0.50609542     0.03800
C1359       C  0.68571387  0.38641598  0.50027374    -0.12300
C1360       C  0.70348717  0.37227362  0.51685795     0.23100
C1361       C  0.68555538  0.36043044  0.53901933    -0.12900
C1362       C  0.64960959  0.36175140  0.54225892     0.04500
C1363       C  0.74121501  0.37028776  0.51187931     0.26900
C1364       C  0.75466055  0.35643878  0.49073880    -0.13500
C1365       C  0.79038556  0.35510211  0.48522457     0.05000
C1366       C  0.81271085  0.36762189  0.50061805    -0.09500
C1367       C  0.79922213  0.38151817  0.52154020     0.05800
C1368       C  0.76371604  0.38253506  0.52794341    -0.13900
Br1369     Br  0.71048362  0.34243783  0.56524821    -0.05900
Br1370     Br  0.62832410  0.41032505  0.48902513    -0.00300
Br1371     Br  0.80900397  0.33584672  0.45749678     0.00100
Br1372     Br  0.74589191  0.40028393  0.55992711    -0.04300
Br1373     Br  0.62575543  0.34302461  0.56717860     0.00200
Br1374     Br  0.70997596  0.40247089  0.46910613    -0.03600
Br1375     Br  0.72433496  0.33897255  0.47014821    -0.04400
Br1376     Br  0.82911335  0.39975872  0.54021287    -0.00500
C1377       C  0.31311096  0.36152466  0.51025124     0.01000
C1378       C  0.29500497  0.35291790  0.48292227     0.03800
C1379       C  0.25944022  0.35568796  0.47892968    -0.12300
C1380       C  0.24163043  0.36676793  0.50258736     0.23100
C1381       C  0.25951032  0.37532977  0.52988799    -0.12900
C1382       C  0.29524915  0.37305956  0.53327594     0.04500
C1383       C  0.20383646  0.36890516  0.49968711     0.26900
C1384       C  0.18955080  0.38428436  0.48385004    -0.13500
C1385       C  0.15357252  0.38655689  0.48269755     0.05000
C1386       C  0.13182589  0.37346895  0.49779390    -0.09500
C1387       C  0.14639388  0.35775428  0.51230618     0.05800
C1388       C  0.18220920  0.35563249  0.51370917    -0.13900
Br1389     Br  0.23477191  0.39027637  0.56254056    -0.05900
Br1390     Br  0.31861018  0.33709850  0.45102106    -0.00300
Br1391     Br  0.13461681  0.40788743  0.46152242     0.00100
Br1392     Br  0.20187426  0.33467995  0.53577512    -0.04300
Br1393     Br  0.31974572  0.38717979  0.56743858     0.00200
Br1394     Br  0.23493145  0.34440983  0.44091385    -0.03600
Br1395     Br  0.21957853  0.40244549  0.46485038    -0.04400
Br1396     Br  0.11750030  0.33843795  0.52856990    -0.00500
C1397       C  0.48949983  0.37396675  0.36070709     0.01000
C1398       C  0.47071656  0.38289827  0.33436589     0.03800
C1399       C  0.48018171  0.38099138  0.29885333    -0.12300
C1400       C  0.50879837  0.37035297  0.28961843     0.23100
C1401       C  0.52730037  0.36125410  0.31591080    -0.12900
C1402       C  0.51705729  0.36259424  0.35119437     0.04500
C1403       C  0.51926066  0.36856118  0.25225499     0.26900
C1404       C  0.50971690  0.35327462  0.23294906    -0.13500
C1405       C  0.51770314  0.35213128  0.19697456     0.05000
C1406       C  0.53563952  0.36612793  0.18026601    -0.09500
C1407       C  0.54585516  0.38122041  0.19977465     0.05800
C1408       C  0.53813621  0.38231451  0.23579630    -0.13900
Br1409     Br  0.56724492  0.34727647  0.30346300    -0.05900
Br1410     Br  0.43263886  0.39808748  0.34708065    -0.00300
Br1411     Br  0.50177310  0.33207150  0.16973446     0.00100
Br1412     Br  0.55230713  0.40294426  0.26245107    -0.04300
Br1413     Br  0.53940400  0.34771851  0.38592294     0.00200
Br1414     Br  0.45422552  0.39313735  0.26282666    -0.03600
Br1415     Br  0.48436281  0.33427321  0.25549514    -0.04400
Br1416     Br  0.56733718  0.40122915  0.17635768    -0.00500
C1417       C  0.51246761  0.38056424  0.86007855     0.01000
C1418       C  0.48324927  0.36986549  0.85323648     0.03800
C1419       C  0.47377676  0.36598438  0.81848512    -0.12300
C1420       C  0.49318378  0.37285040  0.79039301     0.23100
C1421       C  0.52190753  0.38384691  0.79708531    -0.12900
C1422       C  0.53140897  0.38777994  0.83190543     0.04500
C1423       C  0.48356690  0.36821223  0.75386556     0.26900
C1424       C  0.50031526  0.35398927  0.73678784    -0.13500
C1425       C  0.49225437  0.35001703  0.70173738     0.05000
C1426       C  0.46762091  0.36035274  0.68347119    -0.09500
C1427       C  0.44970729  0.37403115  0.70107056     0.05800
C1428       C  0.45751268  0.37786634  0.73633484    -0.13900
Br1429     Br  0.54819255  0.39347417  0.75849321    -0.05900
Br1430     Br  0.45649996  0.35994789  0.89131386    -0.00300
Br1431     Br  0.51621112  0.33089677  0.67801788     0.00100
Br1432     Br  0.43368586  0.39688332  0.76025946    -0.04300
Br1433     Br  0.56907578  0.40385174  0.84110741     0.00200
Br1434     Br  0.43445691  0.35098386  0.80904136    -0.03600
Br1435     Br  0.53528027  0.34041209  0.76106056    -0.04400
Br1436     Br  0.41719182  0.38875676  0.67586456    -0.00500
C1437       C  0.50963374  0.45122148  0.48988765     0.01000
C1438       C  0.50732177  0.46277465  0.51932605     0.03800
C1439       C  0.50604988  0.48143785  0.51490514    -0.12300
C1440       C  0.50968362  0.48905422  0.48132650     0.23100
C1441       C  0.51470390  0.47773328  0.45210076    -0.12900
C1442       C  0.51401594  0.45886827  0.45620619     0.04500
C1443       C  0.51003820  0.50899145  0.47760535     0.26900
C1444       C  0.48045978  0.51843547  0.46644456    -0.13500
C1445       C  0.48090051  0.53733061  0.46410733     0.05000
C1446       C  0.51079680  0.54689296  0.47324303    -0.09500
C1447       C  0.53974861  0.53745328  0.48594951     0.05800
C1448       C  0.53953952  0.51863545  0.48765852    -0.13900
Br1449     Br  0.52216067  0.48819100  0.40644165    -0.05900
Br1450     Br  0.50683024  0.45327095  0.56655264    -0.00300
Br1451     Br  0.44122879  0.55009164  0.44678812     0.00100
Br1452     Br  0.58004787  0.50595540  0.50330207    -0.04300
Br1453     Br  0.51720212  0.44370892  0.41551533     0.00200
Br1454     Br  0.49846181  0.49669741  0.55507406    -0.03600
Br1455     Br  0.43952118  0.50544555  0.45392116    -0.04400
Br1456     Br  0.57974287  0.55037252  0.50183663    -0.00500
C1457       C  0.66456208  0.21145975  0.05460140     0.01000
C1458       C  0.62892712  0.21423789  0.04926497     0.03800
C1459       C  0.61496300  0.23168348  0.04976796    -0.12300
C1460       C  0.63640417  0.24666338  0.05461310     0.23100
C1461       C  0.67191923  0.24399218  0.06007207    -0.12900
C1462       C  0.68598171  0.22650568  0.05997698     0.04500
C1463       C  0.62158923  0.26517312  0.05227091     0.26900
C1464       C  0.61770622  0.27353185  0.01925964    -0.13500
C1465       C  0.60174107  0.29045768  0.01646186     0.05000
C1466       C  0.58962154  0.29935803  0.04677712    -0.09500
C1467       C  0.59450471  0.29119846  0.07998475     0.05800
C1468       C  0.61026884  0.27417106  0.08264929    -0.13900
Br1469     Br  0.70112263  0.26442848  0.06794913    -0.05900
Br1470     Br  0.59925168  0.19428575  0.03843864    -0.00300
Br1471     Br  0.59840648  0.30182660  0.97098181     0.00100
Br1472     Br  0.61651466  0.26303587  0.12793218    -0.04300
Br1473     Br  0.73452307  0.22327037  0.06798217     0.00200
Br1474     Br  0.56616227  0.23519436  0.04381685    -0.03600
Br1475     Br  0.63504822  0.26181315  0.97781576    -0.04400
Br1476     Br  0.57862244  0.30302274  0.12189026    -0.00500
C1477       C  0.87098112  0.11629464  0.05513507     0.01000
C1478       C  0.88958749  0.11074086  0.08521426     0.03800
C1479       C  0.92549500  0.11311757  0.08686268    -0.12300
C1480       C  0.94306496  0.12134622  0.05884017     0.23100
C1481       C  0.92473870  0.12696439  0.02891467    -0.12900
C1482       C  0.88899774  0.12410099  0.02663133     0.04500
C1483       C  0.98109796  0.12330119  0.05995730     0.26900
C1484       C  0.99635589  0.13889235  0.07375206    -0.13500
C1485       C  0.03243842  0.14055600  0.07462388     0.05000
C1486       C  0.05325851  0.12692447  0.06065224    -0.09500
C1487       C  0.03796817  0.11161895  0.04579090     0.05800
C1488       C  0.00201869  0.10964645  0.04612555    -0.13900
Br1489     Br  0.94877933  0.13935615  0.99174644    -0.05900
Br1490     Br  0.86618183  0.09944250  0.12407945    -0.00300
Br1491     Br  0.05361704  0.16153748  0.09446427     0.00100
Br1492     Br  0.98118481  0.08825445  0.02751547    -0.04300
Br1493     Br  0.86503002  0.13180563  0.98485818     0.00200
Br1494     Br  0.95084528  0.10538293  0.12774850    -0.03600
Br1495     Br  0.96775328  0.15809221  0.09055923    -0.04400
Br1496     Br  0.06616564  0.09354287  0.02404922    -0.00500
C1497       C  0.55329681  0.13532408  0.04760087     0.01000
C1498       C  0.53316110  0.14097830  0.01860766     0.03800
C1499       C  0.49715709  0.13947863  0.01952624    -0.12300
C1500       C  0.48079048  0.13226045  0.04924234     0.23100
C1501       C  0.50043790  0.12687673  0.07848332    -0.12900
C1502       C  0.53659044  0.12831287  0.07771021     0.04500
C1503       C  0.44292490  0.12987326  0.04914952     0.26900
C1504       C  0.42111694  0.14455208  0.05583400    -0.13500
C1505       C  0.38525089  0.14233479  0.05464162     0.05000
C1506       C  0.37118409  0.12536503  0.04749860    -0.09500
C1507       C  0.39284794  0.11082076  0.03999148     0.05800
C1508       C  0.42870117  0.11307349  0.04067113    -0.13900
Br1509     Br  0.47744972  0.11736976  0.11942020    -0.05900
Br1510     Br  0.55416675  0.15132186  0.97747921    -0.00300
Br1511     Br  0.35534654  0.16257216  0.06227995     0.00100
Br1512     Br  0.45833571  0.09334453  0.02862916    -0.04300
Br1513     Br  0.56280728  0.11948167  0.11718076     0.00200
Br1514     Br  0.46990749  0.14729636  0.97988347    -0.03600
Br1515     Br  0.44045419  0.16775870  0.06577613    -0.04400
Br1516     Br  0.37308455  0.08817068  0.02653946    -0.00500
C1517       C  0.15081977  0.20322301  0.04426240     0.01000
C1518       C  0.14159713  0.21203337  0.07567032     0.03800
C1519       C  0.13083057  0.23001288  0.07485768    -0.12300
C1520       C  0.12676428  0.23894288  0.04251119     0.23100
C1521       C  0.13399444  0.22986016  0.01096049    -0.12900
C1522       C  0.14698250  0.21225383  0.01183240     0.04500
C1523       C  0.11565378  0.25800175  0.04162404     0.26900
C1524       C  0.08093907  0.26254179  0.04719333    -0.13500
C1525       C  0.07057633  0.28056784  0.04591643     0.05000
C1526       C  0.09410099  0.29401822  0.03579632    -0.09500
C1527       C  0.12891510  0.28946175  0.03031126     0.05800
C1528       C  0.13985670  0.27161686  0.03483548    -0.13900
Br1529     Br  0.12637209  0.24169865  0.96651051    -0.05900
Br1530     Br  0.14196033  0.19929966  0.11985145    -0.00300
Br1531     Br  0.02443948  0.28689939  0.05975566     0.00100
Br1532     Br  0.18804502  0.26569497  0.03194020    -0.04300
Br1533     Br  0.16183448  0.20116080  0.96868175     0.00200
Br1534     Br  0.12285148  0.24268684  0.11815999    -0.03600
Br1535     Br  0.04733315  0.24402249  0.05548855    -0.04400
Br1536     Br  0.16116362  0.30717548  0.01372741    -0.00500
C1537       C  0.82749324  0.78472847  0.98189610     0.01000
C1538       C  0.83821735  0.77662622  0.01383869     0.03800
C1539       C  0.85366626  0.75953470  0.01382837    -0.12300
C1540       C  0.85908170  0.75043338  0.98203208     0.23100
C1541       C  0.84835143  0.75832437  0.95021744    -0.12900
C1542       C  0.83246288  0.77531874  0.95009113     0.04500
C1543       C  0.87682109  0.73273922  0.98187202     0.26900
C1544       C  0.91298300  0.73187833  0.98356701    -0.13500
C1545       C  0.92982242  0.71520013  0.98323690     0.05000
C1546       C  0.91086750  0.69933967  0.97809190    -0.09500
C1547       C  0.87463001  0.70023858  0.97574593     0.05800
C1548       C  0.85767111  0.71679725  0.97929182    -0.13900
Br1549     Br  0.85584050  0.74573727  0.90669670    -0.05900
Br1550     Br  0.83391664  0.78914071  0.05785955    -0.00300
Br1551     Br  0.97860130  0.71410080  0.99202703     0.00100
Br1552     Br  0.80816209  0.71768694  0.98098359    -0.04300
Br1553     Br  0.81623678  0.78517228  0.90621941     0.00200
Br1554     Br  0.86783203  0.74846451  0.05741340    -0.03600
Br1555     Br  0.93953276  0.75362364  0.98552240    -0.04400
Br1556     Br  0.84810033  0.67912663  0.96488328    -0.00500
C1557       C  0.73292626  0.94828707  0.00724866     0.01000
C1558       C  0.73750989  0.95622348  0.04049452     0.03800
C1559       C  0.73635773  0.97504662  0.04403041    -0.12300
C1560       C  0.73205375  0.98612319  0.01419080     0.23100
C1561       C  0.72635162  0.97813466  0.98120200    -0.12900
C1562       C  0.72604464  0.95935110  0.97789666     0.04500
C1563       C  0.73181390  0.00612017  0.01747512     0.26900
C1564       C  0.70034219  0.01540292  0.01704780    -0.13500
C1565       C  0.69973668  0.03426217  0.01817523     0.05000
C1566       C  0.73051671  0.04419219  0.02246725    -0.09500
C1567       C  0.76214774  0.03483241  0.02281842     0.05800
C1568       C  0.76277880  0.01594458  0.01941697    -0.13900
Br1569     Br  0.71919338  0.99301843  0.94032655    -0.05900
Br1570     Br  0.74752730  0.94141055  0.08086628    -0.00300
Br1571     Br  0.65645801  0.04635551  0.01123761     0.00100
Br1572     Br  0.80607150  0.00343057  0.01702153    -0.04300
Br1573     Br  0.71494536  0.94873487  0.93316688     0.00200
Br1574     Br  0.74028527  0.98568550  0.08984158    -0.03600
Br1575     Br  0.65782661  0.00207935  0.01516948    -0.04400
Br1576     Br  0.80457599  0.04763783  0.02981118    -0.00500
C1577       C  0.61090219  0.87043541  0.98850946     0.01000
C1578       C  0.59530399  0.85822295  0.01187366     0.03800
C1579       C  0.55929471  0.85656882  0.01273767    -0.12300
C1580       C  0.53883491  0.86720670  0.99040817     0.23100
C1581       C  0.55441594  0.87952443  0.96726616    -0.12900
C1582       C  0.59040055  0.88108424  0.96621837     0.04500
C1583       C  0.50085362  0.86628498  0.99246885     0.26900
C1584       C  0.48255573  0.85310442  0.97383736    -0.13500
C1585       C  0.44636257  0.85310113  0.97426662     0.05000
C1586       C  0.42845731  0.86658638  0.99262618    -0.09500
C1587       C  0.44696367  0.87984623  0.01096882     0.05800
C1588       C  0.48299730  0.87928077  0.01189308    -0.13900
Br1589     Br  0.52626695  0.89441171  0.93731199    -0.05900
Br1590     Br  0.62330134  0.84333881  0.04188135    -0.00300
Br1591     Br  0.42150067  0.83424279  0.95078679     0.00100
Br1592     Br  0.50816603  0.89616066  0.04024186    -0.04300
Br1593     Br  0.61161228  0.89822095  0.93503190     0.00200
Br1594     Br  0.53782519  0.83983467  0.04455324    -0.03600
Br1595     Br  0.50718521  0.83496463  0.94816612    -0.04400
Br1596     Br  0.42342313  0.89970776  0.03260706    -0.00500
C1597       C  0.92906531  0.85800985  0.99547555     0.01000
C1598       C  0.94907154  0.84997296  0.02207473     0.03800
C1599       C  0.98456867  0.85349443  0.02411514    -0.12300
C1600       C  0.00019630  0.86507536  0.99958936     0.23100
C1601       C  0.98044619  0.87268068  0.97238067    -0.12900
C1602       C  0.94502053  0.86910175  0.97017438     0.04500
C1603       C  0.03791456  0.86808185  0.00048746     0.26900
C1604       C  0.05193847  0.88300690  0.01789539    -0.13500
C1605       C  0.08769295  0.88613479  0.01694674     0.05000
C1606       C  0.10965553  0.87404286  0.99936049    -0.09500
C1607       C  0.09541594  0.85882605  0.98285546     0.05800
C1608       C  0.05967655  0.85613109  0.98273505    -0.13900
Br1609     Br  0.00220132  0.88799880  0.93806634    -0.05900
Br1610     Br  0.92801674  0.83349213  0.05469242    -0.00300
Br1611     Br  0.10605815  0.90760406  0.03773490     0.00100
Br1612     Br  0.04006988  0.83628140  0.95732392    -0.04300
Br1613     Br  0.91841385  0.88002143  0.93305849     0.00200
Br1614     Br  0.01203258  0.84232481  0.06019600    -0.03600
Br1615     Br  0.02191439  0.89935637  0.04220552    -0.04400
Br1616     Br  0.12465129  0.84101048  0.96167906    -0.00500
C1617       C  0.33750970  0.80257649  0.94052127     0.01000
C1618       C  0.33936258  0.79597799  0.90581597     0.03800
C1619       C  0.35642488  0.77963908  0.89875029    -0.12300
C1620       C  0.37129887  0.76963077  0.92633238     0.23100
C1621       C  0.37065464  0.77655544  0.96066751    -0.12900
C1622       C  0.35424955  0.79298519  0.96767772     0.04500
C1623       C  0.38761697  0.75178958  0.91979523     0.26900
C1624       C  0.36804087  0.73600657  0.92308546    -0.13500
C1625       C  0.38416343  0.71906986  0.92189826     0.05000
C1626       C  0.42003483  0.71768489  0.91592483    -0.09500
C1627       C  0.43929922  0.73356822  0.91115615     0.05800
C1628       C  0.42326890  0.75048821  0.91376886    -0.13900
Br1629     Br  0.39282499  0.76347782  0.99814516    -0.05900
Br1630     Br  0.31746514  0.80883747  0.86806712    -0.00300
Br1631     Br  0.35724316  0.69801263  0.93238238     0.00100
Br1632     Br  0.45035726  0.77205121  0.91111117    -0.04300
Br1633     Br  0.35671596  0.80284346  0.01440410     0.00200
Br1634     Br  0.35980921  0.77093333  0.85129649    -0.03600
Br1635     Br  0.31916917  0.73772307  0.93115111    -0.04400
Br1636     Br  0.48773248  0.73231011  0.90067208    -0.00500
C1637       C  0.25244822  0.04273720  0.07608317     0.01000
C1638       C  0.23900045  0.03482912  0.10678863     0.03800
C1639       C  0.23660054  0.01607096  0.10956182    -0.12300
C1640       C  0.24700011  0.00520638  0.08136318     0.23100
C1641       C  0.26200787  0.01307699  0.05136216    -0.12900
C1642       C  0.26464884  0.03179586  0.04871417     0.04500
C1643       C  0.24158103  0.98553855  0.08248608     0.26900
C1644       C  0.26801988  0.97427499  0.09466547    -0.13500
C1645       C  0.26565868  0.95568211  0.08967880     0.05000
C1646       C  0.23727775  0.94833361  0.07170219    -0.09500
C1647       C  0.20933283  0.95939892  0.06270829     0.05800
C1648       C  0.21147300  0.97801795  0.06805077    -0.13900
Br1649     Br  0.27773443  0.99818878  0.01329180    -0.05900
Br1650     Br  0.22033483  0.04970679  0.14332808    -0.00300
Br1651     Br  0.30255492  0.94028384  0.10502645     0.00100
Br1652     Br  0.17463674  0.99340366  0.05255177    -0.04300
Br1653     Br  0.28328313  0.04261830  0.00672476     0.00200
Br1654     Br  0.21771242  0.00520290  0.15123892    -0.03600
Br1655     Br  0.30889347  0.98457353  0.11491540    -0.04400
Br1656     Br  0.16996621  0.94923619  0.03942478    -0.00500
C1657       C  0.82159843  0.20974229  0.52192614     0.01000
C1658       C  0.80036239  0.22475759  0.51580475     0.03800
C1659       C  0.81441074  0.24213407  0.51645174    -0.12300
C1660       C  0.85018214  0.24448942  0.52037140     0.23100
C1661       C  0.87171336  0.22938350  0.52330723    -0.12900
C1662       C  0.85739984  0.21215060  0.52575077     0.04500
C1663       C  0.86548318  0.26272392  0.52211955     0.26900
C1664       C  0.87075615  0.27268277  0.49117621    -0.13500
C1665       C  0.88811167  0.28916466  0.49250265     0.05000
C1666       C  0.90108159  0.29570893  0.52470435    -0.09500
C1667       C  0.89432113  0.28613633  0.55596399     0.05800
C1668       C  0.87667778  0.26965202  0.55460790    -0.13900
Br1669     Br  0.92098901  0.23236760  0.52372432    -0.05900
Br1670     Br  0.75240459  0.22148040  0.50468190    -0.00300
Br1671     Br  0.89279255  0.30308481  0.44996574     0.00100
Br1672     Br  0.86864160  0.25614014  0.59711101    -0.04300
Br1673     Br  0.88679792  0.19213887  0.53729856     0.00200
Br1674     Br  0.78459714  0.26269157  0.51274001    -0.03600
Br1675     Br  0.85523556  0.26343106  0.44665351    -0.04400
Br1676     Br  0.91031014  0.29507056  0.60044523    -0.00500
C1677       C  0.75495398  0.15663158  0.38692823     0.01000
C1678       C  0.73280063  0.17028016  0.37452667     0.03800
C1679       C  0.72635246  0.17222987  0.33817927    -0.12300
C1680       C  0.74142667  0.16035096  0.31395709     0.23100
C1681       C  0.76447336  0.14714245  0.32619240    -0.12900
C1682       C  0.77127455  0.14530984  0.36242769     0.04500
C1683       C  0.73190488  0.16099008  0.27587244     0.26900
C1684       C  0.70272536  0.15164334  0.26378890    -0.13500
C1685       C  0.69623815  0.15001755  0.22743226     0.05000
C1686       C  0.71858605  0.15805078  0.20273716    -0.09500
C1687       C  0.74645394  0.16846355  0.21508987     0.05800
C1688       C  0.75333098  0.16969887  0.25139385    -0.13900
Br1689     Br  0.78561393  0.13100273  0.29316173    -0.05900
Br1690     Br  0.71110808  0.18628841  0.40740063    -0.00300
Br1691     Br  0.65877464  0.13514985  0.21179770     0.00100
Br1692     Br  0.79332542  0.18244868  0.26769154    -0.04300
Br1693     Br  0.80076525  0.12620650  0.37855397     0.00200
Br1694     Br  0.69636460  0.19094026  0.32134586    -0.03600
Br1695     Br  0.67290417  0.14001173  0.29725725    -0.04400
Br1696     Br  0.77564631  0.18098042  0.18220398    -0.00500
C1697       C  0.72359959  0.11348676  0.88824264     0.01000
C1698       C  0.71363537  0.12755245  0.86538248     0.03800
C1699       C  0.71977746  0.12624464  0.82893736    -0.12300
C1700       C  0.73863822  0.11170463  0.81532699     0.23100
C1701       C  0.74875289  0.09772365  0.83803181    -0.12900
C1702       C  0.74026715  0.09832923  0.87399356     0.04500
C1703       C  0.74841998  0.11138142  0.77736167     0.26900
C1704       C  0.73190684  0.09964879  0.75394807    -0.13500
C1705       C  0.74111373  0.09947746  0.71820447     0.05000
C1706       C  0.76407528  0.11241595  0.70449365    -0.09500
C1707       C  0.78120762  0.12396052  0.72821384     0.05800
C1708       C  0.77422688  0.12294837  0.76456932    -0.13900
Br1709     Br  0.77457764  0.07772017  0.81989411    -0.05900
Br1710     Br  0.69425312  0.14935656  0.88375351    -0.00300
Br1711     Br  0.72390690  0.08052999  0.68879127     0.00100
Br1712     Br  0.79975678  0.13758351  0.79713244    -0.04300
Br1713     Br  0.75000934  0.07780462  0.90322551     0.00200
Br1714     Br  0.70172183  0.14417535  0.79725681    -0.03600
Br1715     Br  0.69543252  0.08429779  0.77046742    -0.04400
Br1716     Br  0.81265502  0.14204166  0.71165378    -0.00500
C1717       C  0.60448024  0.12477252  0.54907416     0.01000
C1718       C  0.58216678  0.11770843  0.52333874     0.03800
C1719       C  0.54630227  0.12037457  0.52590605    -0.12300
C1720       C  0.53243886  0.13075804  0.55335063     0.23100
C1721       C  0.55468017  0.13807022  0.57872865    -0.12900
C1722       C  0.59037752  0.13472016  0.57717475     0.04500
C1723       C  0.49437186  0.13319240  0.55653420     0.26900
C1724       C  0.47794181  0.14848570  0.54244993    -0.13500
C1725       C  0.44177024  0.15015320  0.54409697     0.05000
C1726       C  0.42194419  0.13690270  0.56104709    -0.09500
C1727       C  0.43848973  0.12189900  0.57594616     0.05800
C1728       C  0.47441405  0.11989216  0.57315309    -0.13900
Br1729     Br  0.53609103  0.15303394  0.61528170    -0.05900
Br1730     Br  0.60053696  0.10380364  0.48510504    -0.00300
Br1731     Br  0.41903738  0.17014412  0.52183061     0.00100
Br1732     Br  0.49622653  0.09839881  0.59039690    -0.04300
Br1733     Br  0.61983988  0.14434307  0.61325698     0.00200
Br1734     Br  0.51585814  0.10960755  0.49206181    -0.03600
Br1735     Br  0.50496353  0.16681425  0.51987760    -0.04400
Br1736     Br  0.41160104  0.10361135  0.59884707    -0.00500
C1737       C  0.92396204  0.13085678  0.53690756     0.01000
C1738       C  0.94688696  0.13899022  0.56071321     0.03800
C1739       C  0.98239937  0.13580910  0.55803196    -0.12300
C1740       C  0.99512191  0.12391737  0.53253054     0.23100
C1741       C  0.97238294  0.11573796  0.50876687    -0.12900
C1742       C  0.93685742  0.11924150  0.51084735     0.04500
C1743       C  0.03252526  0.12013897  0.53131626     0.26900
C1744       C  0.05409267  0.13064512  0.50993394    -0.13500
C1745       C  0.08996948  0.12929110  0.51340339     0.05000
C1746       C  0.10426868  0.11786766  0.53904989    -0.09500
C1747       C  0.08280623  0.10655485  0.55891210     0.05800
C1748       C  0.04692708  0.10739353  0.55440595    -0.13900
Br1749     Br  0.99008237  0.09964129  0.47368133    -0.05900
Br1750     Br  0.92993691  0.15457904  0.59706142    -0.00300
Br1751     Br  0.11959762  0.14361080  0.48400187     0.00100
Br1752     Br  0.01729418  0.09122118  0.57976044    -0.04300
Br1753     Br  0.90573514  0.10712035  0.47950125     0.00200
Br1754     Br  0.01396381  0.14800070  0.58892488    -0.03600
Br1755     Br  0.03430846  0.14732002  0.47686927    -0.04400
Br1756     Br  0.10260889  0.09014514  0.59244866    -0.00500
C1757       C  0.40960442  0.29133954  0.55144967     0.01000
C1758       C  0.42797406  0.27498082  0.55241408     0.03800
C1759       C  0.41039170  0.25864692  0.55729449    -0.12300
C1760       C  0.37439662  0.25843606  0.56147524     0.23100
C1761       C  0.35589683  0.27458243  0.56027883    -0.12900
C1762       C  0.37324263  0.29094732  0.55530263     0.04500
C1763       C  0.35557563  0.24110377  0.56250057     0.26900
C1764       C  0.34890278  0.23220235  0.53080621    -0.13500
C1765       C  0.33260659  0.21543614  0.53096633     0.05000
C1766       C  0.32074400  0.20781357  0.56286430    -0.09500
C1767       C  0.32661551  0.21707408  0.59471576     0.05800
C1768       C  0.34425756  0.23358999  0.59447749    -0.13900
Br1769     Br  0.30627346  0.27396246  0.56299027    -0.05900
Br1770     Br  0.47732511  0.27464024  0.54767600    -0.00300
Br1771     Br  0.32997906  0.20248951  0.48730996     0.00100
Br1772     Br  0.35267272  0.24609983  0.63783591    -0.04300
Br1773     Br  0.34598706  0.31245738  0.55082960     0.00200
Br1774     Br  0.43530956  0.23628789  0.55658332    -0.03600
Br1775     Br  0.36208666  0.24326051  0.48687565    -0.04400
Br1776     Br  0.30992294  0.20756366  0.63877923    -0.00500
C1777       C  0.26998423  0.10303630  0.39604517     0.01000
C1778       C  0.28153320  0.11605678  0.37168075     0.03800
C1779       C  0.27481164  0.11409019  0.33538534    -0.12300
C1780       C  0.25568012  0.09938403  0.32292900     0.23100
C1781       C  0.24537709  0.08600886  0.34692239    -0.12900
C1782       C  0.25298591  0.08764995  0.38310305     0.04500
C1783       C  0.24488421  0.09860102  0.28501400     0.26900
C1784       C  0.21415920  0.10686373  0.27406344    -0.13500
C1785       C  0.20547213  0.10796567  0.23794915     0.05000
C1786       C  0.22706381  0.10014352  0.21186922    -0.09500
C1787       C  0.25591698  0.09003200  0.22395619     0.05800
C1788       C  0.26521600  0.08979477  0.25992796    -0.13900
Br1789     Br  0.21951267  0.06577232  0.33018433    -0.05900
Br1790     Br  0.30399550  0.13747940  0.38779229    -0.00300
Br1791     Br  0.16407022  0.12076054  0.22585791     0.00100
Br1792     Br  0.30604161  0.07731123  0.27531123    -0.04300
Br1793     Br  0.24067807  0.06851263  0.41488637     0.00200
Br1794     Br  0.29069866  0.13196677  0.30254526    -0.03600
Br1795     Br  0.18384765  0.11662341  0.30934574    -0.04400
Br1796     Br  0.28182863  0.07499740  0.19256549    -0.00500
C1797       C  0.20597936  0.14948981  0.89500188     0.01000
C1798       C  0.22732873  0.16297740  0.88090300     0.03800
C1799       C  0.23413232  0.16364132  0.84455513    -0.12300
C1800       C  0.21861950  0.15124551  0.82168803     0.23100
C1801       C  0.19505303  0.13865979  0.83544071    -0.12900
C1802       C  0.18915060  0.13760576  0.87202233     0.04500
C1803       C  0.22803719  0.15116418  0.78352209     0.26900
C1804       C  0.21170220  0.16290787  0.75977440    -0.13500
C1805       C  0.22113120  0.16306026  0.72395140     0.05000
C1806       C  0.24607316  0.15096579  0.71106816    -0.09500
C1807       C  0.26289873  0.13945051  0.73508203     0.05800
C1808       C  0.25421655  0.13971948  0.77114311    -0.13900
Br1809     Br  0.17171767  0.12249546  0.80420062    -0.05900
Br1810     Br  0.24732127  0.18057058  0.91168683    -0.00300
Br1811     Br  0.20047657  0.18026240  0.69252324     0.00100
Br1812     Br  0.27768974  0.12412650  0.80376964    -0.04300
Br1813     Br  0.16020857  0.11896734  0.89096335     0.00200
Br1814     Br  0.26611765  0.18098867  0.82615725    -0.03600
Br1815     Br  0.17557093  0.17839896  0.77636681    -0.04400
Br1816     Br  0.29631211  0.12244113  0.71849786    -0.00500
C1817       C  0.58898403  0.71061164  0.43331892     0.01000
C1818       C  0.61744951  0.71384122  0.45525239     0.03800
C1819       C  0.62950753  0.73136996  0.46011314    -0.12300
C1820       C  0.61448091  0.74563945  0.44135401     0.23100
C1821       C  0.58633357  0.74240624  0.41892813    -0.12900
C1822       C  0.57326861  0.72493005  0.41533133     0.04500
C1823       C  0.62847726  0.76398978  0.44527690     0.26900
C1824       C  0.61833607  0.77463220  0.47390694    -0.13500
C1825       C  0.63320394  0.79158597  0.47882550     0.05000
C1826       C  0.65748822  0.79817995  0.45454590    -0.09500
C1827       C  0.66693945  0.78775837  0.42540172     0.05800
C1828       C  0.65286980  0.77055185  0.42107091    -0.13900
Br1829     Br  0.56520566  0.76204332  0.39405280    -0.05900
Br1830     Br  0.63962454  0.69425869  0.47918354    -0.00300
Br1831     Br  0.62038933  0.80576450  0.51896954     0.00100
Br1832     Br  0.66760287  0.75571022  0.38258715    -0.04300
Br1833     Br  0.53409900  0.72047668  0.38563920     0.00200
Br1834     Br  0.66548209  0.73598731  0.49380032    -0.03600
Br1835     Br  0.58430261  0.76581587  0.50650210    -0.04400
Br1836     Br  0.69954090  0.79702342  0.39185437    -0.00500
C1837       C  0.71820102  0.86680558  0.32831289     0.01000
C1838       C  0.70065042  0.88045102  0.30984455     0.03800
C1839       C  0.70800715  0.88364496  0.27416389    -0.12300
C1840       C  0.73326116  0.87342184  0.25694466     0.23100
C1841       C  0.75029033  0.85955487  0.27503357    -0.12900
C1842       C  0.74251434  0.85612068  0.31048629     0.04500
C1843       C  0.74062108  0.87650802  0.21921544     0.26900
C1844       C  0.72044140  0.86780252  0.19395635    -0.13500
C1845       C  0.72830347  0.86958852  0.15820814     0.05000
C1846       C  0.75637685  0.88034291  0.14733477    -0.09500
C1847       C  0.77645850  0.88921373  0.17267192     0.05800
C1848       C  0.76829640  0.88744950  0.20860054    -0.13900
Br1849     Br  0.78511922  0.84568775  0.25132589    -0.05900
Br1850     Br  0.66876472  0.89586766  0.33400680    -0.00300
Br1851     Br  0.70145219  0.85607061  0.12477381     0.00100
Br1852     Br  0.79446076  0.90018682  0.24342730    -0.04300
Br1853     Br  0.76541525  0.83679335  0.33474485     0.00200
Br1854     Br  0.68458723  0.90248264  0.24893628    -0.03600
Br1855     Br  0.68197731  0.85323469  0.20860018    -0.04400
Br1856     Br  0.81453429  0.90400415  0.15821228    -0.00500
C1857       C  0.77146293  0.84874949  0.83094984     0.01000
C1858       C  0.78575320  0.86370492  0.81369514     0.03800
C1859       C  0.77848523  0.86691041  0.77805746    -0.12300
C1860       C  0.75713440  0.85508339  0.75932439     0.23100
C1861       C  0.74379717  0.83976541  0.77623605    -0.12900
C1862       C  0.75073295  0.83668901  0.81204863     0.04500
C1863       C  0.74778715  0.85920072  0.72226635     0.26900
C1864       C  0.71639232  0.86774357  0.71443343    -0.13500
C1865       C  0.70796138  0.87217697  0.67940891     0.05000
C1866       C  0.73129171  0.86837412  0.65187449    -0.09500
C1867       C  0.76261554  0.85950134  0.66003545     0.05800
C1868       C  0.77078701  0.85506839  0.69503082    -0.13900
Br1869     Br  0.71434818  0.82361278  0.75085524    -0.05900
Br1870     Br  0.81190083  0.88102588  0.83990056    -0.00300
Br1871     Br  0.66493102  0.88409322  0.67000105     0.00100
Br1872     Br  0.81384454  0.84342430  0.70606139    -0.04300
Br1873     Br  0.73021830  0.81655336  0.83602918     0.00200
Br1874     Br  0.79554085  0.88830028  0.75554885    -0.03600
Br1875     Br  0.68554109  0.87391956  0.75222472    -0.04400
Br1876     Br  0.79407929  0.85227358  0.62348836    -0.00500
C1877       C  0.72926192  0.04818658  0.57128369     0.01000
C1878       C  0.74837102  0.03890862  0.59709522     0.03800
C1879       C  0.74946526  0.02003009  0.59705202    -0.12300
C1880       C  0.73235964  0.01037894  0.57060240     0.23100
C1881       C  0.71267225  0.01961518  0.54527896    -0.12900
C1882       C  0.71108036  0.03842702  0.54568282     0.04500
C1883       C  0.73779623  0.99075162  0.56695369     0.26900
C1884       C  0.76416806  0.98437053  0.54485488    -0.13500
C1885       C  0.76631596  0.96602358  0.53688209     0.05000
C1886       C  0.74275303  0.95391544  0.55173505    -0.09500
C1887       C  0.71803025  0.96009960  0.57594247     0.05800
C1888       C  0.71535263  0.97851808  0.58331990    -0.13900
Br1889     Br  0.69023411  0.00651067  0.50822179    -0.05900
Br1890     Br  0.77675658  0.05201515  0.62949570    -0.00300
Br1891     Br  0.79980643  0.95754405  0.50353823     0.00100
Br1892     Br  0.67990272  0.98717219  0.61430003    -0.04300
Br1893     Br  0.68663785  0.05103847  0.50901879     0.00200
Br1894     Br  0.77663065  0.00728797  0.63134732    -0.03600
Br1895     Br  0.79626812  0.00096995  0.52414656    -0.04400
Br1896     Br  0.68680187  0.94335708  0.59764444    -0.00500
C1897       C  0.05625378  0.86787213  0.49298334     0.01000
C1898       C  0.04157195  0.87939822  0.46756582     0.03800
C1899       C  0.00592021  0.88275368  0.46752884    -0.12300
C1900       C  0.98476990  0.87506478  0.49349691     0.23100
C1901       C  0.99928269  0.86358650  0.51894491    -0.12900
C1902       C  0.03478161  0.85983493  0.51845368     0.04500
C1903       C  0.94692623  0.87798636  0.49258981     0.26900
C1904       C  0.93214091  0.89367311  0.50657782    -0.13500
C1905       C  0.89613055  0.89612934  0.50581832     0.05000
C1906       C  0.87479071  0.88292339  0.49076032    -0.09500
C1907       C  0.88979714  0.86693809  0.47811514     0.05800
C1908       C  0.92562654  0.86467218  0.47835722    -0.13900
Br1909     Br  0.97016727  0.85275978  0.55414500    -0.05900
Br1910     Br  0.07024962  0.89139682  0.43367998    -0.00300
Br1911     Br  0.87633231  0.91753726  0.52549748     0.00100
Br1912     Br  0.94574015  0.84309398  0.45947368    -0.04300
Br1913     Br  0.05350177  0.84290232  0.55165524     0.00200
Br1914     Br  0.98573979  0.89764682  0.43148968    -0.03600
Br1915     Br  0.96140080  0.91169537  0.52689957    -0.04400
Br1916     Br  0.86151853  0.84709287  0.46376176    -0.00500
C1917       C  0.37366671  0.88546367  0.47575014     0.01000
C1918       C  0.39092536  0.90181897  0.48127499     0.03800
C1919       C  0.42720750  0.90218638  0.48339222    -0.12300
C1920       C  0.44638224  0.88635539  0.47820582     0.23100
C1921       C  0.42910024  0.87031747  0.47033328    -0.12900
C1922       C  0.39298629  0.86971713  0.47037317     0.04500
C1923       C  0.48454467  0.88599448  0.48240639     0.26900
C1924       C  0.50615771  0.88881311  0.45334345    -0.13500
C1925       C  0.54198149  0.88608682  0.45627474     0.05000
C1926       C  0.55654953  0.87953154  0.48808969    -0.09500
C1927       C  0.53455814  0.87748040  0.51773205     0.05800
C1928       C  0.49898710  0.88093894  0.51481680    -0.13900
Br1929     Br  0.45515981  0.84909284  0.45924303    -0.05900
Br1930     Br  0.36484986  0.92373980  0.48431611    -0.00300
Br1931     Br  0.57052639  0.89282551  0.41693590     0.00100
Br1932     Br  0.46934634  0.87833900  0.55521172    -0.04300
Br1933     Br  0.37023738  0.84691571  0.46577275     0.00200
Br1934     Br  0.45065891  0.92425560  0.49356294    -0.03600
Br1935     Br  0.48614129  0.89608404  0.40917076    -0.04400
Br1936     Br  0.55160593  0.86923361  0.56266633    -0.00500
C1937       C  0.16719481  0.78883742  0.48180942     0.01000
C1938       C  0.16774529  0.77901820  0.51385550     0.03800
C1939       C  0.15538740  0.76132603  0.51531007    -0.12300
C1940       C  0.14150446  0.75327141  0.48522470     0.23100
C1941       C  0.14083671  0.76283491  0.45327355    -0.12900
C1942       C  0.15372065  0.78048882  0.45142357     0.04500
C1943       C  0.12632784  0.73498762  0.48764741     0.26900
C1944       C  0.14743885  0.71970150  0.48560694    -0.13500
C1945       C  0.13279884  0.70243511  0.48691244     0.05000
C1946       C  0.09676817  0.70031981  0.49043863    -0.09500
C1947       C  0.07602163  0.71573616  0.49451691     0.05800
C1948       C  0.09069977  0.73294679  0.49274316    -0.13900
Br1949     Br  0.12227116  0.75151046  0.41197207    -0.05900
Br1950     Br  0.18294988  0.78976134  0.55713673    -0.00300
Br1951     Br  0.16244305  0.68191302  0.48200613     0.00100
Br1952     Br  0.06196811  0.75390239  0.49690730    -0.04300
Br1953     Br  0.15392833  0.79267920  0.40666729     0.00200
Br1954     Br  0.15691661  0.74801146  0.55889261    -0.03600
Br1955     Br  0.19648281  0.72255774  0.48027810    -0.04400
Br1956     Br  0.02752104  0.71342496  0.50412619    -0.00500
C1957       C  0.26174137  0.86688036  0.15583083     0.01000
C1958       C  0.23837341  0.85289049  0.16330292     0.03800
C1959       C  0.23125553  0.84810469  0.19817138    -0.12300
C1960       C  0.24799431  0.85689960  0.22578309     0.23100
C1961       C  0.27324416  0.86994062  0.21847592    -0.12900
C1962       C  0.27954952  0.87524976  0.18350012     0.04500
C1963       C  0.23654270  0.85348365  0.26226424     0.26900
C1964       C  0.20897051  0.86346714  0.27607686    -0.13500
C1965       C  0.19876264  0.86097147  0.31114669     0.05000
C1966       C  0.21566675  0.84818099  0.33228462    -0.09500
C1967       C  0.24133069  0.83717979  0.31745550     0.05800
C1968       C  0.25187595  0.83988058  0.28253600    -0.13900
Br1969     Br  0.29905938  0.88041436  0.25640667    -0.05900
Br1970     Br  0.21623699  0.83986180  0.12594176    -0.00300
Br1971     Br  0.16443103  0.87656388  0.33114338     0.00100
Br1972     Br  0.28791034  0.82536951  0.26267232    -0.04300
Br1973     Br  0.31039637  0.89483404  0.17375465     0.00200
Br1974     Br  0.19798477  0.82966538  0.20851941    -0.03600
Br1975     Br  0.18592772  0.88097825  0.24704154    -0.04400
Br1976     Br  0.26335907  0.81908610  0.34592655    -0.00500
C1977       C  0.26855278  0.88036500  0.83022995     0.01000
C1978       C  0.28791734  0.86934556  0.80736013     0.03800
C1979       C  0.28238272  0.87025399  0.77087994    -0.12300
C1980       C  0.25672715  0.88156418  0.75726132     0.23100
C1981       C  0.23889236  0.89326803  0.77949150    -0.12900
C1982       C  0.24602455  0.89331436  0.81556919     0.04500
C1983       C  0.24865711  0.88139313  0.71941014     0.26900
C1984       C  0.26236517  0.89467346  0.69739698    -0.13500
C1985       C  0.25232224  0.89554843  0.66211910     0.05000
C1986       C  0.23169650  0.88190367  0.64750989    -0.09500
C1987       C  0.21915091  0.86806772  0.66957864     0.05800
C1988       C  0.22610275  0.86846151  0.70579755    -0.13900
Br1989     Br  0.20370975  0.90878829  0.76044098    -0.05900
Br1990     Br  0.32112226  0.85242636  0.82488721    -0.00300
Br1991     Br  0.26446030  0.91649265  0.63536445     0.00100
Br1992     Br  0.20391911  0.85172817  0.73718271    -0.04300
Br1993     Br  0.22670351  0.91216943  0.84392656     0.00200
Br1994     Br  0.30935298  0.85579454  0.73922917    -0.03600
Br1995     Br  0.29477237  0.91178627  0.71582484    -0.04400
Br1996     Br  0.19459047  0.84781965  0.65080897    -0.00500
C1997       C  0.25469554  0.95271181  0.50235296     0.01000
C1998       C  0.26413037  0.96253708  0.47212506     0.03800
C1999       C  0.26577251  0.98128931  0.47350933    -0.12300
C2000       C  0.25893314  0.99007909  0.50532857     0.23100
C2001       C  0.25258949  0.98018281  0.53613953    -0.12900
C2002       C  0.24948978  0.96154631  0.53445726     0.04500
C2003       C  0.25596081  0.00970744  0.50649933     0.26900
C2004       C  0.28554507  0.02018298  0.51071744    -0.13500
C2005       C  0.28227394  0.03857193  0.51687178     0.05000
C2006       C  0.24929625  0.04638452  0.52047714    -0.09500
C2007       C  0.21967248  0.03586792  0.51571090     0.05800
C2008       C  0.22309155  0.01763880  0.50751244    -0.13900
Br2009     Br  0.24656844  0.99233851  0.58037611    -0.05900
Br2010     Br  0.27408526  0.95034571  0.42869758    -0.00300
Br2011     Br  0.32340051  0.05284586  0.52075132     0.00100
Br2012     Br  0.18283257  0.00318908  0.49917001    -0.04300
Br2013     Br  0.23372670  0.94855452  0.57507670     0.00200
Br2014     Br  0.27592023  0.99500777  0.43177492    -0.03600
Br2015     Br  0.33042273  0.00909262  0.50994706    -0.04400
Br2016     Br  0.17471513  0.04573406  0.52462447    -0.00500
loop_ 
_geom_bond_atom_site_label_1 
_geom_bond_atom_site_label_2 
_geom_bond_distance 
_geom_bond_site_symmetry_2 
_ccdc_geom_bond_type 
Zr1           O2   2.441       .  S
Zr1           O3   2.464       .  S
Zr1           O4   2.478       .  S
Zr1           O7   2.469       .  S
Zr1           O9   2.390       .  S
Zr1          O10   2.390       .  S
Zr1          O11   2.418       .  S
Zr1          O12   2.401       .  S
O2           H58   0.990       .  S
O2           H66   0.990       .  S
O3           C23   1.288       .  A
O4           C25   1.291       .  A
O5          Zr15   2.430       .  S
O5           C24   1.284       .  A
O6          Zr14   2.375       .  S
O6           C25   1.274       .  A
O7           C24   1.292       .  A
O8          Zr16   2.419       .  S
O8           C23   1.281       .  A
O9          Zr14   2.402       .  S
O9          Zr16   2.372       .  S
O10         Zr15   2.400       .  S
O10         Zr16   2.387       .  S
O10          H45   0.965       .  S
O11         Zr14   2.403       .  S
O11         Zr31   2.385       .  S
O11          H48   0.964       .  S
O12         Zr15   2.386       .  S
O12         Zr31   2.381       .  S
Zr13         O38   2.440       .  S
Zr13         O32   2.443       .  S
Zr13         O40   2.440       .  S
Zr13         O28   2.453       .  S
Zr13         O19   2.395       .  S
Zr13         O20   2.407       .  S
Zr13         O21   2.373       .  S
Zr13         O22   2.391       .  S
Zr14         O33   2.437       .  S
Zr14         O26   2.431       .  S
Zr14         O27   2.429       .  S
Zr14         O20   2.382       .  S
Zr14         O21   2.377       .  S
Zr15         O17   2.436       .  S
Zr15         O39   2.438       .  S
Zr15         O41   2.426       .  S
Zr15         O19   2.384       .  S
Zr15         O22   2.397       .  S
Zr16         O42   2.430       .  S
Zr16         O43   2.435       .  S
Zr16         O18   2.437       .  S
Zr16         O19   2.381       .  S
Zr16         O20   2.391       .  S
O17          H54   0.990       .  S
O18          H49   0.990       .  S
O18          H63   0.990       .  S
O20          H46   0.965       .  S
O21         Zr31   2.381       .  S
O22         Zr31   2.389       .  S
O22          H47   0.966       .  S
C23        C1937   1.499       .  S
C24        C1897   1.487       .  S
C25        C1966   1.470       .  S
O26          H62   0.990       .  S
O27          C29   1.283       .  A
O28          C29   1.285       .  A
C29        C1917   1.484       .  S
O30         Zr31   2.437       .  S
O30          H59   0.990       .  S
Zr31         O34   2.436       .  S
Zr31         O35   2.441       .  S
Zr31         O36   2.388       .  S
O32          C37   1.285       .  A
O33          H50   0.990       .  S
O33          H65   0.990       .  S
O34          H51   0.990       .  S
O35          H55   0.990       .  S
O35          H64   0.990       .  S
O36          C37   1.275       .  A
C37        C1997   1.466       .  S
O38          H57   0.990       .  S
O38          H61   0.990       .  S
O39          H53   0.990       .  S
O39          H60   0.989       .  S
O40          C44   1.286       .  A
O41          C44   1.283       .  A
O42          H52   0.990       .  S
O43          H56   0.991       .  S
C44        C1986   1.482       .  S
Zr67         O68   2.441       .  S
Zr67         O69   2.447       .  S
Zr67         O70   2.476       .  S
Zr67         O73   2.472       .  S
Zr67         O75   2.386       .  S
Zr67         O76   2.392       .  S
Zr67         O77   2.419       .  S
Zr67         O78   2.390       .  S
O68         H124   0.990       .  S
O68         H132   0.990       .  S
O69          C89   1.284       .  A
O70          C91   1.291       .  A
O71         Zr81   2.440       .  S
O71          C90   1.286       .  A
O72         Zr80   2.400       .  S
O72          C91   1.278       .  A
O73          C90   1.292       .  A
O74         Zr82   2.419       .  S
O74          C89   1.280       .  A
O75         Zr80   2.406       .  S
O75         Zr82   2.377       .  S
O76         Zr81   2.396       .  S
O76         Zr82   2.379       .  S
O76         H111   0.964       .  S
O77         Zr80   2.401       .  S
O77         Zr97   2.395       .  S
O77         H114   0.965       .  S
O78         Zr81   2.388       .  S
O78         Zr97   2.371       .  S
Zr79        O104   2.444       .  S
Zr79         O98   2.472       .  S
Zr79        O106   2.441       .  S
Zr79         O94   2.458       .  S
Zr79         O85   2.401       .  S
Zr79         O86   2.424       .  S
Zr79         O87   2.384       .  S
Zr79         O88   2.382       .  S
Zr80         O99   2.435       .  S
Zr80         O92   2.433       .  S
Zr80         O93   2.430       .  S
Zr80         O86   2.395       .  S
Zr80         O87   2.394       .  S
Zr81         O83   2.438       .  S
Zr81        O105   2.438       .  S
Zr81        O107   2.458       .  S
Zr81         O85   2.382       .  S
Zr81         O88   2.389       .  S
Zr82        O108   2.436       .  S
Zr82        O109   2.437       .  S
Zr82         O84   2.437       .  S
Zr82         O85   2.391       .  S
Zr82         O86   2.398       .  S
O83         H120   0.990       .  S
O84         H115   0.990       .  S
O84         H129   0.989       .  S
O86         H112   0.963       .  S
O87         Zr97   2.387       .  S
O88         Zr97   2.390       .  S
O88         H113   0.964       .  S
C89        C1826   1.474       .  S
C90        C1926   1.507       .  S
C91        C1837   1.479       .  S
O92         H128   0.990       .  S
O93          C95   1.284       .  A
O94          C95   1.286       .  A
C95        C1906   1.487       .  S
O96         Zr97   2.439       .  S
O96         H125   0.990       .  S
Zr97        O100   2.436       .  S
Zr97        O101   2.439       .  S
Zr97        O102   2.394       .  S
O98         C103   1.289       .  A
O99         H116   0.990       .  S
O99         H131   0.990       .  S
O100        H117   0.990       .  S
O101        H121   0.990       .  S
O101        H130   0.990       .  S
O102        C103   1.276       .  A
C103       C1886   1.474       .  S
O104        H123   0.990       .  S
O104        H127   0.990       .  S
O105        H119   0.990       .  S
O105        H126   0.990       .  S
O106        C110   1.286       .  A
O107        C110   1.289       .  A
O108        H118   0.990       .  S
O109        H122   0.990       .  S
C110       C1866   1.496       .  S
Zr133       O134   2.442       .  S
Zr133       O135   2.458       .  S
Zr133       O136   2.440       .  S
Zr133       O139   2.428       .  S
Zr133       O141   2.372       .  S
Zr133       O142   2.386       .  S
Zr133       O143   2.413       .  S
Zr133       O144   2.413       .  S
O134        H190   0.990       .  S
O134        H198   0.991       .  S
O135        C155   1.287       .  A
O136        C157   1.284       .  A
O137       Zr147   2.432       .  S
O137        C156   1.284       .  A
O138       Zr146   2.477       .  S
O138        C157   1.292       .  A
O139        C156   1.282       .  A
O140       Zr148   2.387       .  S
O140        C155   1.276       .  A
O141       Zr146   2.385       .  S
O141       Zr148   2.390       .  S
O142       Zr147   2.395       .  S
O142       Zr148   2.375       .  S
O142        H177   0.966       .  S
O143       Zr146   2.398       .  S
O143       Zr163   2.397       .  S
O143        H180   0.963       .  S
O144       Zr147   2.384       .  S
O144       Zr163   2.394       .  S
Zr145       O170   2.440       .  S
Zr145       O164   2.435       .  S
Zr145       O172   2.495       .  S
Zr145       O160   2.476       .  S
Zr145       O151   2.401       .  S
Zr145       O152   2.404       .  S
Zr145       O153   2.390       .  S
Zr145       O154   2.396       .  S
Zr146       O165   2.433       .  S
Zr146       O158   2.434       .  S
Zr146       O159   2.422       .  S
Zr146       O152   2.416       .  S
Zr146       O153   2.399       .  S
Zr147       O149   2.435       .  S
Zr147       O171   2.436       .  S
Zr147       O173   2.416       .  S
Zr147       O151   2.396       .  S
Zr147       O154   2.402       .  S
Zr148       O174   2.437       .  S
Zr148       O175   2.433       .  S
Zr148       O150   2.437       .  S
Zr148       O151   2.375       .  S
Zr148       O152   2.384       .  S
O149        H186   0.990       .  S
O150        H181   0.990       .  S
O150        H195   0.990       .  S
O152        H178   0.963       .  S
O153       Zr163   2.376       .  S
O154       Zr163   2.379       .  S
O154        H179   0.966       .  S
C155       C2006   1.471       .  S
C156       C1746   1.472       .  S
C157       C1777   1.501       .  S
O158        H194   0.990       .  S
O159        C161   1.282       .  A
O160        C161   1.292       .  A
C161       C1726   1.483       .  S
O162       Zr163   2.441       .  S
O162        H191   0.990       .  S
Zr163       O166   2.439       .  S
Zr163       O167   2.440       .  S
Zr163       O168   2.427       .  S
O164        C169   1.284       .  A
O165        H182   0.990       .  S
O165        H197   0.989       .  S
O166        H183   0.990       .  S
O167        H187   0.990       .  S
O167        H196   0.990       .  S
O168        C169   1.283       .  A
C169       C1766   1.491       .  S
O170        H189   0.990       .  S
O170        H193   0.990       .  S
O171        H185   0.990       .  S
O171        H192   0.990       .  S
O172        C176   1.296       .  A
O173        C176   1.282       .  A
O174        H184   0.990       .  S
O175        H188   0.990       .  S
C176       C1806   1.496       .  S
Zr199       O200   2.441       .  S
Zr199       O201   2.430       .  S
Zr199       O202   2.479       .  S
Zr199       O205   2.458       .  S
Zr199       O207   2.385       .  S
Zr199       O208   2.396       .  S
Zr199       O209   2.401       .  S
Zr199       O210   2.399       .  S
O200        H256   0.990       .  S
O200        H264   0.990       .  S
O201        C221   1.283       .  A
O202        C223   1.292       .  A
O203       Zr213   2.419       .  S
O203        C222   1.283       .  A
O204       Zr212   2.419       .  S
O204        C223   1.282       .  A
O205        C222   1.290       .  A
O206       Zr214   2.433       .  S
O206        C221   1.284       .  A
O207       Zr212   2.401       .  S
O207       Zr214   2.377       .  S
O208       Zr213   2.399       .  S
O208       Zr214   2.374       .  S
O208        H243   0.965       .  S
O209       Zr212   2.399       .  S
O209       Zr229   2.386       .  S
O209        H246   0.965       .  S
O210       Zr213   2.397       .  S
O210       Zr229   2.377       .  S
Zr211       O236   2.443       .  S
Zr211       O230   2.483       .  S
Zr211       O238   2.448       .  S
Zr211       O226   2.463       .  S
Zr211       O217   2.415       .  S
Zr211       O218   2.419       .  S
Zr211       O219   2.381       .  S
Zr211       O220   2.382       .  S
Zr212       O231   2.434       .  S
Zr212       O224   2.434       .  S
Zr212       O225   2.436       .  S
Zr212       O218   2.392       .  S
Zr212       O219   2.394       .  S
Zr213       O215   2.436       .  S
Zr213       O237   2.437       .  S
Zr213       O239   2.440       .  S
Zr213       O217   2.391       .  S
Zr213       O220   2.389       .  S
Zr214       O240   2.435       .  S
Zr214       O241   2.435       .  S
Zr214       O216   2.436       .  S
Zr214       O217   2.406       .  S
Zr214       O218   2.390       .  S
O215        H252   0.989       .  S
O216        H247   0.990       .  S
O216        H261   0.990       .  S
O218        H244   0.965       .  S
O219       Zr229   2.386       .  S
O220       Zr229   2.388       .  S
O220        H245   0.966       .  S
C221       C1657   1.482       .  S
C222       C1737   1.479       .  S
C223       C1677   1.491       .  S
O224        H260   0.990       .  S
O225        C227   1.285       .  A
O226        C227   1.289       .  A
C227       C1717   1.492       .  S
O228       Zr229   2.439       .  S
O228        H257   0.990       .  S
Zr229       O232   2.437       .  S
Zr229       O233   2.440       .  S
Zr229       O234   2.385       .  S
O230        C235   1.292       .  A
O231        H248   0.990       .  S
O231        H263   0.990       .  S
O232        H249   0.990       .  S
O233        H253   0.990       .  S
O233        H262   0.990       .  S
O234        C235   1.275       .  A
C235       C1877   1.478       .  S
O236        H255   0.989       .  S
O236        H259   0.990       .  S
O237        H251   0.990       .  S
O237        H258   0.989       .  S
O238        C242   1.286       .  A
O239        C242   1.285       .  A
O240        H250   0.990       .  S
O241        H254   0.990       .  S
C242       C1706   1.497       .  S
Zr265       O266   2.443       .  S
Zr265       O267   2.472       .  S
Zr265       O268   2.432       .  S
Zr265       O271   2.450       .  S
Zr265       O273   2.378       .  S
Zr265       O274   2.384   1_554  S
Zr265       O275   2.425       .  S
Zr265       O276   2.411   1_554  S
O266        H322   0.990       .  S
O266        H330   0.990       .  S
O267        C287   1.288       .  A
O268        C289   1.283       .  A
O269       Zr279   2.426       .  S
O269        C288   1.283       .  A
O270       Zr278   2.449       .  S
O270        C289   1.286       .  A
O271        C288   1.286   1_554  A
O272       Zr280   2.384   1_554  S
O272        C287   1.274       .  A
O273       Zr278   2.391       .  S
O273       Zr280   2.385   1_554  S
O274       Zr279   2.399       .  S
O274       Zr280   2.385       .  S
O274        H309   0.966       .  S
O275       Zr278   2.398       .  S
O275       Zr295   2.394       .  S
O275        H312   0.962       .  S
O276       Zr279   2.378       .  S
O276       Zr295   2.401   1_556  S
Zr277       O302   2.441       .  S
Zr277       O296   2.454       .  S
Zr277       O304   2.458       .  S
Zr277       O292   2.434       .  S
Zr277       O283   2.403       .  S
Zr277       O284   2.409       .  S
Zr277       O285   2.384       .  S
Zr277       O286   2.386       .  S
Zr278       O297   2.436       .  S
Zr278       O290   2.435       .  S
Zr278       O291   2.429       .  S
Zr278       O284   2.404   1_554  S
Zr278       O285   2.397   1_554  S
Zr279       O281   2.435       .  S
Zr279       O303   2.438       .  S
Zr279       O305   2.407       .  S
Zr279       O283   2.394       .  S
Zr279       O286   2.402       .  S
Zr280       O306   2.437       .  S
Zr280       O307   2.436       .  S
Zr280       O282   2.437   1_556  S
Zr280       O283   2.382       .  S
Zr280       O284   2.375       .  S
O281        H318   0.990       .  S
O282        H313   0.990       .  S
O282        H327   0.990       .  S
O284        H310   0.965       .  S
O285       Zr295   2.371   1_556  S
O286       Zr295   2.374   1_556  S
O286        H311   0.966       .  S
C287       C1646   1.475       .  S
C288       C1606   1.485       .  S
C289       C1957   1.477       .  S
O290        H326   0.990       .  S
O291        C293   1.285   1_554  A
O292        C293   1.285       .  A
C293       C1586   1.476       .  S
O294       Zr295   2.440       .  S
O294        H323   0.990       .  S
Zr295       O298   2.439       .  S
Zr295       O299   2.440   1_554  S
Zr295       O300   2.433   1_554  S
O296        C301   1.286       .  A
O297        H314   0.990       .  S
O297        H329   0.990       .  S
O298        H315   0.990       .  S
O299        H319   0.990       .  S
O299        H328   0.989       .  S
O300        C301   1.284       .  A
C301       C1617   1.495       .  S
O302        H321   0.989       .  S
O302        H325   0.990       .  S
O303        H317   0.990       .  S
O303        H324   0.990       .  S
O304        C308   1.287       .  A
O305        C308   1.281       .  A
O306        H316   0.991       .  S
O307        H320   0.990       .  S
C308       C1977   1.489       .  S
Zr331       O332   2.444       .  S
Zr331       O333   2.473       .  S
Zr331       O334   2.429       .  S
Zr331       O337   2.441       .  S
Zr331       O339   2.379       .  S
Zr331       O340   2.374   1_554  S
Zr331       O341   2.422       .  S
Zr331       O342   2.415   1_554  S
O332        H388   0.990       .  S
O332        H396   0.990       .  S
O333        C353   1.289       .  A
O334        C355   1.282       .  A
O335       Zr345   2.419       .  S
O335        C354   1.281       .  A
O336       Zr344   2.449       .  S
O336        C355   1.287       .  A
O337        C354   1.284   1_554  A
O338       Zr346   2.394       .  S
O338        C353   1.276   1_556  A
O339       Zr344   2.401       .  S
O339       Zr346   2.387   1_554  S
O340       Zr345   2.389       .  S
O340       Zr346   2.382       .  S
O340        H375   0.966       .  S
O341       Zr344   2.396       .  S
O341       Zr361   2.387       .  S
O341        H378   0.961       .  S
O342       Zr345   2.375       .  S
O342       Zr361   2.406   1_556  S
Zr343       O368   2.442       .  S
Zr343       O362   2.455       .  S
Zr343       O370   2.476       .  S
Zr343       O358   2.454       .  S
Zr343       O349   2.404       .  S
Zr343       O350   2.414       .  S
Zr343       O351   2.385   1_556  S
Zr343       O352   2.387       .  S
Zr344       O363   2.436       .  S
Zr344       O356   2.435       .  S
Zr344       O357   2.431       .  S
Zr344       O350   2.405   1_554  S
Zr344       O351   2.402       .  S
Zr345       O347   2.436       .  S
Zr345       O369   2.439       .  S
Zr345       O371   2.383       .  S
Zr345       O349   2.396       .  S
Zr345       O352   2.404       .  S
Zr346       O372   2.434       .  S
Zr346       O373   2.433       .  S
Zr346       O348   2.437       .  S
Zr346       O349   2.388       .  S
Zr346       O350   2.372       .  S
O347        H384   0.990       .  S
O348        H379   0.990       .  S
O348        H393   0.990   1_556  S
O350        H376   0.963       .  S
O351       Zr361   2.376       .  S
O352       Zr361   2.373   1_556  S
O352        H377   0.966       .  S
C353       C1557   1.488       .  S
C354       C1577   1.473       .  S
C355       C1846   1.478       .  S
O356        H392   0.990       .  S
O357        C359   1.285   1_554  A
O358        C359   1.289       .  A
C359       C1597   1.478       .  S
O360       Zr361   2.439       .  S
O360        H389   0.990       .  S
Zr361       O364   2.439       .  S
Zr361       O365   2.442   1_554  S
Zr361       O366   2.430       .  S
O362        C367   1.287       .  A
O363        H380   0.990       .  S
O363        H395   0.990       .  S
O364        H381   0.990       .  S
O365        H385   0.990       .  S
O365        H394   0.990       .  S
O366        C367   1.282   1_554  A
C367       C1537   1.497       .  S
O368        H387   0.990       .  S
O368        H391   0.991       .  S
O369        H383   0.990       .  S
O369        H390   0.990       .  S
O370        C374   1.291       .  A
O371        C374   1.275       .  A
O372        H382   0.989       .  S
O373        H386   0.990       .  S
C374       C1857   1.472       .  S
Zr397       O398   2.440       .  S
Zr397       O399   2.464       .  S
Zr397       O400   2.462       .  S
Zr397       O403   2.447       .  S
Zr397       O405   2.380       .  S
Zr397       O406   2.392       .  S
Zr397       O407   2.417       .  S
Zr397       O408   2.405       .  S
O398        H454   0.989       .  S
O398        H462   0.990       .  S
O399        C419   1.288       .  A
O400        C421   1.289       .  A
O401       Zr411   2.407       .  S
O401        C420   1.279       .  A
O402       Zr410   2.482       .  S
O402        C421   1.293       .  A
O403        C420   1.286       .  A
O404       Zr412   2.386       .  S
O404        C419   1.275       .  A
O405       Zr410   2.395       .  S
O405       Zr412   2.389       .  S
O406       Zr411   2.398       .  S
O406       Zr412   2.378       .  S
O406        H441   0.966       .  S
O407       Zr410   2.397       .  S
O407       Zr427   2.398       .  S
O407        H444   0.965       .  S
O408       Zr411   2.379       .  S
O408       Zr427   2.381       .  S
Zr409       O434   2.440   1_554  S
Zr409       O428   2.442       .  S
Zr409       O436   2.472   1_554  S
Zr409       O424   2.452       .  S
Zr409       O415   2.398   1_554  S
Zr409       O416   2.415       .  S
Zr409       O417   2.390       .  S
Zr409       O418   2.384       .  S
Zr410       O429   2.433       .  S
Zr410       O422   2.435       .  S
Zr410       O423   2.440       .  S
Zr410       O416   2.417       .  S
Zr410       O417   2.402       .  S
Zr411       O413   2.434   1_554  S
Zr411       O435   2.439   1_554  S
Zr411       O437   2.408   1_554  S
Zr411       O415   2.387   1_554  S
Zr411       O418   2.393       .  S
Zr412       O438   2.435   1_554  S
Zr412       O439   2.436   1_554  S
Zr412       O414   2.438       .  S
Zr412       O415   2.384   1_554  S
Zr412       O416   2.374       .  S
O413        H450   0.990       .  S
O414        H445   0.991       .  S
O414        H459   0.990       .  S
O416        H442   0.962       .  S
O417       Zr427   2.379       .  S
O418       Zr427   2.378       .  S
O418        H443   0.966       .  S
C419       C1637   1.473       .  S
C420       C1506   1.467       .  S
C421       C1786   1.526       .  S
O422        H458   0.990       .  S
O423        C425   1.286       .  A
O424        C425   1.287       .  A
C425       C1486   1.475       .  S
O426       Zr427   2.439       .  S
O426        H455   0.990       .  S
Zr427       O430   2.435       .  S
Zr427       O431   2.442       .  S
Zr427       O432   2.419       .  S
O428        C433   1.285       .  A
O429        H446   0.990       .  S
O429        H461   0.990       .  S
O430        H447   0.990       .  S
O431        H451   0.990       .  S
O431        H460   0.990       .  S
O432        C433   1.281       .  A
C433       C1517   1.484       .  S
O434        H453   0.991       .  S
O434        H457   0.990       .  S
O435        H449   0.990       .  S
O435        H456   0.990       .  S
O436        C440   1.291       .  A
O437        C440   1.279       .  A
O438        H448   0.990       .  S
O439        H452   0.990       .  S
C440       C1797   1.486       .  S
Zr463       O464   2.440       .  S
Zr463       O465   2.449       .  S
Zr463       O466   2.483       .  S
Zr463       O469   2.460       .  S
Zr463       O471   2.381       .  S
Zr463       O472   2.391       .  S
Zr463       O473   2.411       .  S
Zr463       O474   2.401       .  S
O464        H520   0.990       .  S
O464        H528   0.989       .  S
O465        C485   1.285       .  A
O466        C487   1.293       .  A
O467       Zr477   2.430   1_554  S
O467        C486   1.286       .  A
O468       Zr476   2.410       .  S
O468        C487   1.280       .  A
O469        C486   1.290       .  A
O470       Zr478   2.447       .  S
O470        C485   1.285       .  A
O471       Zr476   2.401       .  S
O471       Zr478   2.379       .  S
O472       Zr477   2.399   1_554  S
O472       Zr478   2.374       .  S
O472        H507   0.965       .  S
O473       Zr476   2.400       .  S
O473       Zr493   2.400       .  S
O473        H510   0.965       .  S
O474       Zr477   2.397   1_554  S
O474       Zr493   2.383       .  S
Zr475       O500   2.443   1_554  S
Zr475       O494   2.498       .  S
Zr475       O502   2.451   1_554  S
Zr475       O490   2.466       .  S
Zr475       O481   2.413   1_554  S
Zr475       O482   2.425       .  S
Zr475       O483   2.378       .  S
Zr475       O484   2.385       .  S
Zr476       O495   2.436       .  S
Zr476       O488   2.434       .  S
Zr476       O489   2.420       .  S
Zr476       O482   2.390       .  S
Zr476       O483   2.395       .  S
Zr477       O479   2.436       .  S
Zr477       O501   2.437       .  S
Zr477       O503   2.452       .  S
Zr477       O481   2.381       .  S
Zr477       O484   2.394   1_556  S
Zr478       O504   2.437   1_554  S
Zr478       O505   2.435   1_554  S
Zr478       O480   2.436       .  S
Zr478       O481   2.398   1_554  S
Zr478       O482   2.404       .  S
O479        H516   0.990       .  S
O480        H511   0.990       .  S
O480        H525   0.990       .  S
O482        H508   0.965       .  S
O483       Zr493   2.383       .  S
O484       Zr493   2.391       .  S
O484        H509   0.966       .  S
C485       C1457   1.498       .  S
C486       C1497   1.491       .  S
C487       C1686   1.493       .  S
O488        H524   0.990       .  S
O489        C491   1.282       .  A
O490        C491   1.290       .  A
C491       C1477   1.490       .  S
O492       Zr493   2.439       .  S
O492        H521   0.990       .  S
Zr493       O496   2.438       .  S
Zr493       O497   2.436       .  S
Zr493       O498   2.414       .  S
O494        C499   1.295       .  A
O495        H512   0.990       .  S
O495        H527   0.990       .  S
O496        H513   0.990       .  S
O497        H517   0.989       .  S
O497        H526   0.990       .  S
O498        C499   1.280       .  A
C499       C1566   1.502       .  S
O500        H519   0.989       .  S
O500        H523   0.990       .  S
O501        H515   0.990       .  S
O501        H522   0.989       .  S
O502        C506   1.287       .  A
O503        C506   1.288       .  A
O504        H514   0.990       .  S
O505        H518   0.991       .  S
C506       C1697   1.494       .  S
Zr529       O530   2.443       .  S
Zr529       O531   2.500       .  S
Zr529       O532   2.441       .  S
Zr529       O535   2.440       .  S
Zr529       O537   2.382       .  S
Zr529       O538   2.376       .  S
Zr529       O539   2.427       .  S
Zr529       O540   2.419       .  S
O530        H586   0.990       .  S
O530        H594   0.991       .  S
O531        C551   1.295       .  A
O532        C553   1.283       .  A
O533       Zr543   2.428       .  S
O533        C552   1.282       .  A
O534       Zr542   2.449       .  S
O534        C553   1.286       .  A
O535        C552   1.284       .  A
O536       Zr544   2.374       .  S
O536        C551   1.273       .  A
O537       Zr542   2.392       .  S
O537       Zr544   2.395       .  S
O538       Zr543   2.388       .  S
O538       Zr544   2.383       .  S
O538        H573   0.965       .  S
O539       Zr542   2.393       .  S
O539       Zr559   2.389       .  S
O539        H576   0.961       .  S
O540       Zr543   2.375       .  S
O540       Zr559   2.418       .  S
Zr541       O566   2.440       .  S
Zr541       O560   2.421       .  S
Zr541       O568   2.470       .  S
Zr541       O556   2.471       .  S
Zr541       O547   2.390       .  S
Zr541       O548   2.408       .  S
Zr541       O549   2.389       .  S
Zr541       O550   2.391       .  S
Zr542       O561   2.437       .  S
Zr542       O554   2.433       .  S
Zr542       O555   2.414       .  S
Zr542       O548   2.407       .  S
Zr542       O549   2.407       .  S
Zr543       O545   2.431       .  S
Zr543       O567   2.440       .  S
Zr543       O569   2.378       .  S
Zr543       O547   2.394       .  S
Zr543       O550   2.406       .  S
Zr544       O570   2.435       .  S
Zr544       O571   2.436       .  S
Zr544       O546   2.438       .  S
Zr544       O547   2.371       .  S
Zr544       O548   2.360       .  S
O545        H582   0.990       .  S
O546        H577   0.990       .  S
O546        H591   0.990       .  S
O548        H574   0.964       .  S
O549       Zr559   2.373       .  S
O550       Zr559   2.369       .  S
O550        H575   0.965       .  S
C551       C1437   1.496       .  S
C552       C1357   1.490       .  S
C553       C1397   1.480       .  S
O554        H590   0.990       .  S
O555        C557   1.282       .  A
O556        C557   1.292       .  A
C557       C1377   1.480       .  S
O558       Zr559   2.440       .  S
O558        H587   0.991       .  S
Zr559       O562   2.437       .  S
Zr559       O563   2.441       .  S
Zr559       O564   2.457       .  S
O560        C565   1.279       .  A
O561        H578   0.990       .  S
O561        H593   0.990       .  S
O562        H579   0.990       .  S
O563        H583   0.989       .  S
O563        H592   0.990       .  S
O564        C565   1.288       .  A
C565       C1757   1.497       .  S
O566        H585   0.989       .  S
O566        H589   0.990       .  S
O567        H581   0.990       .  S
O567        H588   0.990       .  S
O568        C572   1.291       .  A
O569        C572   1.275       .  A
O570        H580   0.990       .  S
O571        H584   0.990       .  S
C572       C1426   1.471       .  S
Zr595       O596   2.443       .  S
Zr595       O597   2.469       .  S
Zr595       O598   2.428       .  S
Zr595       O601   2.442       .  S
Zr595       O603   2.381   1_455  S
Zr595       O604   2.381       .  S
Zr595       O605   2.420   1_455  S
Zr595       O606   2.412       .  S
O596        H652   0.990       .  S
O596        H660   0.991       .  S
O597        C617   1.288   1_455  A
O598        C619   1.281   1_455  A
O599       Zr609   2.423       .  S
O599        C618   1.283       .  A
O600       Zr608   2.471       .  S
O600        C619   1.291       .  A
O601        C618   1.284       .  A
O602       Zr610   2.374       .  S
O602        C617   1.271       .  A
O603       Zr608   2.402       .  S
O603       Zr610   2.392       .  S
O604       Zr609   2.394       .  S
O604       Zr610   2.377   1_455  S
O604        H639   0.966       .  S
O605       Zr608   2.399       .  S
O605       Zr625   2.386       .  S
O605        H642   0.960       .  S
O606       Zr609   2.375       .  S
O606       Zr625   2.398   1_455  S
Zr607       O632   2.444       .  S
Zr607       O626   2.451       .  S
Zr607       O634   2.457       .  S
Zr607       O622   2.432       .  S
Zr607       O613   2.404       .  S
Zr607       O614   2.413       .  S
Zr607       O615   2.380       .  S
Zr607       O616   2.387       .  S
Zr608       O627   2.435       .  S
Zr608       O620   2.435       .  S
Zr608       O621   2.458       .  S
Zr608       O614   2.409       .  S
Zr608       O615   2.396       .  S
Zr609       O611   2.435       .  S
Zr609       O633   2.438       .  S
Zr609       O635   2.388   1_455  S
Zr609       O613   2.392   1_455  S
Zr609       O616   2.402   1_455  S
Zr610       O636   2.437       .  S
Zr610       O637   2.437       .  S
Zr610       O612   2.438       .  S
Zr610       O613   2.378       .  S
Zr610       O614   2.366       .  S
O611        H648   0.990       .  S
O612        H643   0.990       .  S
O612        H657   0.990       .  S
O614        H640   0.962       .  S
O615       Zr625   2.379       .  S
O616       Zr625   2.370       .  S
O616        H641   0.966       .  S
C617       C1337   1.468   1_655  S
C618       C1386   1.483       .  S
C619       C1297   1.484       .  S
O620        H656   0.990       .  S
O621        C623   1.290       .  A
O622        C623   1.285       .  A
C623       C1366   1.475       .  S
O624       Zr625   2.441   1_455  S
O624        H653   0.990       .  S
Zr625       O628   2.438       .  S
Zr625       O629   2.440   1_655  S
Zr625       O630   2.417       .  S
O626        C631   1.285       .  A
O627        H644   0.990       .  S
O627        H659   0.990       .  S
O628        H645   0.990       .  S
O629        H649   0.990       .  S
O629        H658   0.990       .  S
O630        C631   1.281       .  A
C631       C1666   1.486       .  S
O632        H651   0.991       .  S
O632        H655   0.991       .  S
O633        H647   0.990       .  S
O633        H654   0.990       .  S
O634        C638   1.286       .  A
O635        C638   1.277       .  A
O636        H646   0.990       .  S
O637        H650   0.990       .  S
C638       C1326   1.467       .  S
Zr661       O662   2.444       .  S
Zr661       O663   2.480       .  S
Zr661       O664   2.440       .  S
Zr661       O667   2.433       .  S
Zr661       O669   2.379   1_655  S
Zr661       O670   2.380       .  S
Zr661       O671   2.420   1_655  S
Zr661       O672   2.411       .  S
O662        H718   0.990       .  S
O662        H726   0.991       .  S
O663        C683   1.290   1_655  A
O664        C685   1.283   1_655  A
O665       Zr675   2.442       .  S
O665        C684   1.285       .  A
O666       Zr674   2.472       .  S
O666        C685   1.291       .  A
O667        C684   1.283       .  A
O668       Zr676   2.378       .  S
O668        C683   1.272       .  A
O669       Zr674   2.402       .  S
O669       Zr676   2.396       .  S
O670       Zr675   2.400       .  S
O670       Zr676   2.384   1_655  S
O670        H705   0.966       .  S
O671       Zr674   2.388       .  S
O671       Zr691   2.388       .  S
O671        H708   0.960       .  S
O672       Zr675   2.371       .  S
O672       Zr691   2.396   1_655  S
Zr673       O698   2.441       .  S
Zr673       O692   2.450       .  S
Zr673       O700   2.488       .  S
Zr673       O688   2.481       .  S
Zr673       O679   2.398       .  S
Zr673       O680   2.414       .  S
Zr673       O681   2.388       .  S
Zr673       O682   2.394       .  S
Zr674       O693   2.436       .  S
Zr674       O686   2.435       .  S
Zr674       O687   2.421       .  S
Zr674       O680   2.417       .  S
Zr674       O681   2.403       .  S
Zr675       O677   2.436       .  S
Zr675       O699   2.437       .  S
Zr675       O701   2.401   1_655  S
Zr675       O679   2.396   1_655  S
Zr675       O682   2.403   1_655  S
Zr676       O702   2.436       .  S
Zr676       O703   2.438       .  S
Zr676       O678   2.436       .  S
Zr676       O679   2.371       .  S
Zr676       O680   2.374       .  S
O677        H714   0.990       .  S
O678        H709   0.991       .  S
O678        H723   0.990       .  S
O680        H706   0.963       .  S
O681       Zr691   2.375       .  S
O682       Zr691   2.374       .  S
O682        H707   0.966       .  S
C683       C1346   1.476   1_455  S
C684       C1226   1.479       .  S
C685       C1266   1.490       .  S
O686        H722   0.990       .  S
O687        C689   1.282       .  A
O688        C689   1.293       .  A
C689       C1246   1.481       .  S
O690       Zr691   2.438   1_655  S
O690        H719   0.991       .  S
Zr691       O694   2.439       .  S
Zr691       O695   2.441   1_455  S
Zr691       O696   2.423       .  S
O692        C697   1.286       .  A
O693        H710   0.990       .  S
O693        H725   0.990       .  S
O694        H711   0.990       .  S
O695        H715   0.989       .  S
O695        H724   0.990       .  S
O696        C697   1.281       .  A
C697       C1946   1.493       .  S
O698        H717   0.990       .  S
O698        H721   0.990       .  S
O699        H713   0.990       .  S
O699        H720   0.989       .  S
O700        C704   1.295       .  A
O701        C704   1.281       .  A
O702        H712   0.990       .  S
O703        H716   0.990       .  S
C704       C1277   1.485       .  S
Zr727       O728   2.441       .  S
Zr727       O729   2.442       .  S
Zr727       O730   2.473       .  S
Zr727       O733   2.467       .  S
Zr727       O735   2.388       .  S
Zr727       O736   2.392       .  S
Zr727       O737   2.413       .  S
Zr727       O738   2.394       .  S
O728        H784   0.990       .  S
O728        H792   0.990       .  S
O729        C749   1.284       .  A
O730        C751   1.290       .  A
O731       Zr741   2.440       .  S
O731        C750   1.286       .  A
O732       Zr740   2.402       .  S
O732        C751   1.278       .  A
O733        C750   1.291       .  A
O734       Zr742   2.423       .  S
O734        C749   1.280       .  A
O735       Zr740   2.401       .  S
O735       Zr742   2.374       .  S
O736       Zr741   2.392       .  S
O736       Zr742   2.378       .  S
O736        H771   0.964       .  S
O737       Zr740   2.405       .  S
O737       Zr757   2.393       .  S
O737        H774   0.965       .  S
O738       Zr741   2.392       .  S
O738       Zr757   2.379       .  S
Zr739       O764   2.442       .  S
Zr739       O758   2.481       .  S
Zr739       O766   2.456       .  S
Zr739       O754   2.460       .  S
Zr739       O745   2.405       .  S
Zr739       O746   2.428       .  S
Zr739       O747   2.380       .  S
Zr739       O748   2.391       .  S
Zr740       O759   2.436       .  S
Zr740       O752   2.434       .  S
Zr740       O753   2.430       .  S
Zr740       O746   2.388       .  S
Zr740       O747   2.393       .  S
Zr741       O743   2.437       .  S
Zr741       O765   2.438       .  S
Zr741       O767   2.442       .  S
Zr741       O745   2.377       .  S
Zr741       O748   2.396       .  S
Zr742       O768   2.438       .  S
Zr742       O769   2.437       .  S
Zr742       O744   2.438       .  S
Zr742       O745   2.386       .  S
Zr742       O746   2.400       .  S
O743        H780   0.990       .  S
O744        H775   0.990       .  S
O744        H789   0.990       .  S
O746        H772   0.963       .  S
O747       Zr757   2.387       .  S
O748       Zr757   2.394       .  S
O748        H773   0.964       .  S
C749       C1817   1.474       .  S
C750       C1217   1.491       .  S
C751       C1186   1.479       .  S
O752        H788   0.990       .  S
O753        C755   1.283       .  A
O754        C755   1.288       .  A
C755       C1237   1.490       .  S
O756       Zr757   2.440       .  S
O756        H785   0.990       .  S
Zr757       O760   2.436       .  S
Zr757       O761   2.438       .  S
Zr757       O762   2.397       .  S
O758        C763   1.291       .  A
O759        H776   0.990       .  S
O759        H791   0.990       .  S
O760        H777   0.990       .  S
O761        H781   0.990       .  S
O761        H790   0.990       .  S
O762        C763   1.277       .  A
C763       C1446   1.485       .  S
O764        H783   0.990       .  S
O764        H787   0.989       .  S
O765        H779   0.990       .  S
O765        H786   0.989       .  S
O766        C770   1.287       .  A
O767        C770   1.287       .  A
O768        H778   0.990       .  S
O769        H782   0.989       .  S
C770       C1197   1.494       .  S
Zr793       O794   2.441       .  S
Zr793       O795   2.452       .  S
Zr793       O796   2.472       .  S
Zr793       O799   2.448       .  S
Zr793       O801   2.384       .  S
Zr793       O802   2.392   1_554  S
Zr793       O803   2.412       .  S
Zr793       O804   2.406       .  S
O794        H850   0.990       .  S
O794        H858   0.990       .  S
O795        C815   1.286       .  A
O796        C817   1.289       .  A
O797       Zr807   2.447       .  S
O797        C816   1.288       .  A
O798       Zr806   2.391   1_455  S
O798        C817   1.277       .  A
O799        C816   1.287   1_554  A
O800       Zr808   2.408   1_554  S
O800        C815   1.279       .  A
O801       Zr806   2.405   1_455  S
O801       Zr808   2.383   1_554  S
O802       Zr807   2.401       .  S
O802       Zr808   2.373       .  S
O802        H837   0.965       .  S
O803       Zr806   2.397   1_455  S
O803       Zr823   2.398       .  S
O803        H840   0.965       .  S
O804       Zr807   2.399   1_554  S
O804       Zr823   2.387       .  S
Zr805       O830   2.441       .  S
Zr805       O824   2.454       .  S
Zr805       O832   2.413   1_655  S
Zr805       O820   2.462       .  S
Zr805       O811   2.408   1_655  S
Zr805       O812   2.402       .  S
Zr805       O813   2.375   1_556  S
Zr805       O814   2.396   1_655  S
Zr806       O825   2.435       .  S
Zr806       O818   2.433       .  S
Zr806       O819   2.426       .  S
Zr806       O812   2.385   1_554  S
Zr806       O813   2.381       .  S
Zr807       O809   2.437       .  S
Zr807       O831   2.436       .  S
Zr807       O833   2.469       .  S
Zr807       O811   2.391       .  S
Zr807       O814   2.386       .  S
Zr808       O834   2.435       .  S
Zr808       O835   2.434   1_455  S
Zr808       O810   2.434   1_456  S
Zr808       O811   2.384       .  S
Zr808       O812   2.381   1_455  S
O809        H846   0.990       .  S
O810        H841   0.990   1_554  S
O810        H855   0.990       .  S
O812        H838   0.963       .  S
O813       Zr823   2.385   1_655  S
O814       Zr823   2.386   1_556  S
O814        H839   0.965       .  S
C815       C1526   1.483       .  S
C816       C1137   1.490       .  S
C817       C1306   1.481       .  S
O818        H854   0.990       .  S
O819        C821   1.283       .  A
O820        C821   1.288   1_556  A
C821       C1126   1.491       .  S
O822       Zr823   2.441       .  S
O822        H851   0.990       .  S
Zr823       O826   2.437       .  S
Zr823       O827   2.439       .  S
Zr823       O828   2.403   1_554  S
O824        C829   1.285   1_655  A
O825        H842   0.990       .  S
O825        H857   0.990       .  S
O826        H843   0.990       .  S
O827        H847   0.990   1_554  S
O827        H856   0.990       .  S
O828        C829   1.278       .  A
C829       C1157   1.467       .  S
O830        H849   0.989       .  S
O830        H853   0.990       .  S
O831        H845   0.990       .  S
O831        H852   0.989       .  S
O832        C836   1.281       .  A
O833        C836   1.291       .  A
O834        H844   0.990       .  S
O835        H848   0.990       .  S
C836       C1317   1.493       .  S
Zr859       O860   2.440       .  S
Zr859       O861   2.442       .  S
Zr859       O862   2.483       .  S
Zr859       O865   2.455       .  S
Zr859       O867   2.384       .  S
Zr859       O868   2.395       .  S
Zr859       O869   2.404       .  S
Zr859       O870   2.401       .  S
O860        H916   0.990       .  S
O860        H924   0.990       .  S
O861        C881   1.284       .  A
O862        C883   1.292       .  A
O863       Zr873   2.430       .  S
O863        C882   1.286   1_556  A
O864       Zr872   2.391       .  S
O864        C883   1.277       .  A
O865        C882   1.290       .  A
O866       Zr874   2.452       .  S
O866        C881   1.287       .  A
O867       Zr872   2.412       .  S
O867       Zr874   2.370       .  S
O868       Zr873   2.397   1_554  S
O868       Zr874   2.366       .  S
O868        H903   0.965   1_554  S
O869       Zr872   2.412       .  S
O869       Zr889   2.380       .  S
O869        H906   0.964       .  S
O870       Zr873   2.398   1_554  S
O870       Zr889   2.368       .  S
Zr871       O896   2.445       .  S
Zr871       O890   2.489       .  S
Zr871       O898   2.416       .  S
Zr871       O886   2.436       .  S
Zr871       O877   2.421       .  S
Zr871       O878   2.428   1_556  S
Zr871       O879   2.369   1_556  S
Zr871       O880   2.385       .  S
Zr872       O891   2.436       .  S
Zr872       O884   2.434       .  S
Zr872       O885   2.447       .  S
Zr872       O878   2.386       .  S
Zr872       O879   2.387       .  S
Zr873       O875   2.435       .  S
Zr873       O897   2.437       .  S
Zr873       O899   2.454       .  S
Zr873       O877   2.375       .  S
Zr873       O880   2.400       .  S
Zr874       O900   2.435   1_554  S
Zr874       O901   2.439   1_554  S
Zr874       O876   2.441       .  S
Zr874       O877   2.410   1_554  S
Zr874       O878   2.403       .  S
O875        H912   0.989       .  S
O876        H907   0.990       .  S
O876        H921   0.990       .  S
O878        H904   0.961       .  S
O879       Zr889   2.395       .  S
O880       Zr889   2.394   1_556  S
O880        H905   0.966       .  S
C881       C1466   1.496       .  S
C882       C1117   1.484       .  S
C883       C1406   1.472       .  S
O884        H920   0.990       .  S
O885        C887   1.286       .  A
O886        C887   1.282   1_556  A
C887       C1146   1.481       .  S
O888       Zr889   2.438       .  S
O888        H917   0.990       .  S
Zr889       O892   2.435       .  S
Zr889       O893   2.440       .  S
Zr889       O894   2.378       .  S
O890        C895   1.291       .  A
O891        H908   0.990       .  S
O891        H923   0.990       .  S
O892        H909   0.990       .  S
O893        H913   0.990       .  S
O893        H922   0.989   1_554  S
O894        C895   1.274   1_554  A
C895       C1097   1.487       .  S
O896        H915   0.991       .  S
O896        H919   0.990       .  S
O897        H911   0.990       .  S
O897        H918   0.990       .  S
O898        C902   1.279       .  A
O899        C902   1.287       .  A
O900        H910   0.990       .  S
O901        H914   0.990       .  S
C902       C1417   1.478       .  S
Zr925       O926   2.442   1_556  S
Zr925       O927   2.491       .  S
Zr925       O928   2.471   1_556  S
Zr925       O931   2.452       .  S
Zr925       O933   2.382       .  S
Zr925       O934   2.384       .  S
Zr925       O935   2.421       .  S
Zr925       O936   2.422       .  S
O926        H982   0.990       .  S
O926        H990   0.991       .  S
O927        C947   1.293       .  A
O928        C949   1.290       .  A
O929       Zr939   2.419       .  S
O929        C948   1.281       .  A
O930       Zr938   2.454   1_554  S
O930        C949   1.287       .  A
O931        C948   1.288       .  A
O932       Zr940   2.373       .  S
O932        C947   1.273       .  A
O933       Zr938   2.398       .  S
O933       Zr940   2.395       .  S
O934       Zr939   2.392       .  S
O934       Zr940   2.374       .  S
O934        H969   0.966       .  S
O935       Zr938   2.392       .  S
O935       Zr955   2.384       .  S
O935        H972   0.960   1_556  S
O936       Zr939   2.384       .  S
O936       Zr955   2.406       .  S
Zr937       O962   2.439       .  S
Zr937       O956   2.451       .  S
Zr937       O964   2.489       .  S
Zr937       O952   2.484       .  S
Zr937       O943   2.404       .  S
Zr937       O944   2.413       .  S
Zr937       O945   2.385       .  S
Zr937       O946   2.393       .  S
Zr938       O957   2.436   1_556  S
Zr938       O950   2.434   1_556  S
Zr938       O951   2.421       .  S
Zr938       O944   2.411       .  S
Zr938       O945   2.403       .  S
Zr939       O941   2.434       .  S
Zr939       O963   2.439       .  S
Zr939       O965   2.398       .  S
Zr939       O943   2.391       .  S
Zr939       O946   2.404       .  S
Zr940       O966   2.435       .  S
Zr940       O967   2.434       .  S
Zr940       O942   2.436       .  S
Zr940       O943   2.378       .  S
Zr940       O944   2.367       .  S
O941        H978   0.990       .  S
O942        H973   0.990       .  S
O942        H987   0.989       .  S
O944        H970   0.963       .  S
O945       Zr955   2.377       .  S
O946       Zr955   2.373       .  S
O946        H971   0.965       .  S
C947       C1106   1.484       .  S
C948       C1057   1.480       .  S
C949       C1177   1.491       .  S
O950        H986   0.990       .  S
O951        C953   1.283       .  A
O952        C953   1.295       .  A
C953       C1077   1.490       .  S
O954       Zr955   2.439       .  S
O954        H983   0.990       .  S
Zr955       O958   2.438   1_556  S
Zr955       O959   2.440       .  S
Zr955       O960   2.432       .  S
O956        C961   1.286       .  A
O957        H974   0.990       .  S
O957        H989   0.990       .  S
O958        H975   0.990       .  S
O959        H979   0.989       .  S
O959        H988   0.990       .  S
O960        C961   1.283       .  A
C961       C1626   1.497       .  S
O962        H981   0.990       .  S
O962        H985   0.990       .  S
O963        H977   0.990       .  S
O963        H984   0.989       .  S
O964        C968   1.295       .  A
O965        C968   1.278       .  A
O966        H976   0.990       .  S
O967        H980   0.990       .  S
C968       C1206   1.482       .  S
Zr991       O992   2.439   1_556  S
Zr991       O993   2.429       .  S
Zr991       O994   2.487   1_556  S
Zr991       O997   2.449       .  S
Zr991       O999   2.385       .  S
Zr991      O1000   2.394       .  S
Zr991      O1001   2.405   1_556  S
Zr991      O1002   2.408       .  S
O992       H1048   0.990       .  S
O992       H1056   0.989       .  S
O993       C1013   1.282       .  A
O994       C1015   1.293       .  A
O995      Zr1005   2.438       .  S
O995       C1014   1.285       .  A
O996      Zr1004   2.412       .  S
O996       C1015   1.281   1_455  A
O997       C1014   1.288       .  A
O998      Zr1006   2.428       .  S
O998       C1013   1.283       .  A
O999      Zr1004   2.406   1_656  S
O999      Zr1006   2.384       .  S
O1000     Zr1005   2.397       .  S
O1000     Zr1006   2.368       .  S
O1000      H1035   0.966       .  S
O1001     Zr1004   2.408   1_655  S
O1001     Zr1021   2.383   1_554  S
O1001      H1038   0.965       .  S
O1002     Zr1005   2.404       .  S
O1002     Zr1021   2.389       .  S
Zr1003     O1028   2.444       .  S
Zr1003     O1022   2.463       .  S
Zr1003     O1030   2.407       .  S
Zr1003     O1018   2.453       .  S
Zr1003     O1009   2.410   1_455  S
Zr1003     O1010   2.410       .  S
Zr1003     O1011   2.372       .  S
Zr1003     O1012   2.388   1_455  S
Zr1004     O1023   2.435       .  S
Zr1004     O1016   2.435       .  S
Zr1004     O1017   2.437   1_554  S
Zr1004     O1010   2.386   1_554  S
Zr1004     O1011   2.400   1_554  S
Zr1005     O1007   2.436       .  S
Zr1005     O1029   2.435       .  S
Zr1005     O1031   2.468       .  S
Zr1005     O1009   2.380       .  S
Zr1005     O1012   2.383       .  S
Zr1006     O1032   2.438       .  S
Zr1006     O1033   2.435   1_655  S
Zr1006     O1008   2.433   1_655  S
Zr1006     O1009   2.383       .  S
Zr1006     O1010   2.397   1_655  S
O1007      H1044   0.990       .  S
O1008      H1039   0.990       .  S
O1008      H1053   0.989       .  S
O1010      H1036   0.962       .  S
O1011     Zr1021   2.393   1_455  S
O1012     Zr1021   2.381       .  S
O1012      H1037   0.965       .  S
C1013      C1546   1.482       .  S
C1014      C1066   1.489       .  S
C1015      C1257   1.493       .  S
O1016      H1052   0.990       .  S
O1017      C1019   1.283       .  A
O1018      C1019   1.284       .  A
C1019      C1086   1.483       .  S
O1020     Zr1021   2.442   1_554  S
O1020      H1049   0.990       .  S
Zr1021     O1024   2.437   1_556  S
Zr1021     O1025   2.440       .  S
Zr1021     O1026   2.394       .  S
O1022      C1027   1.286       .  A
O1023      H1040   0.990       .  S
O1023      H1055   0.990       .  S
O1024      H1041   0.990       .  S
O1025      H1045   0.990       .  S
O1025      H1054   0.990       .  S
O1026      C1027   1.276   1_655  A
C1027      C1166   1.469       .  S
O1028      H1047   0.991       .  S
O1028      H1051   0.991       .  S
O1029      H1043   0.990       .  S
O1029      H1050   0.989       .  S
O1030      C1034   1.279   1_455  A
O1031      C1034   1.291       .  A
O1032      H1042   0.990       .  S
O1033      H1046   0.990       .  S
C1034      C1286   1.482   1_655  S
C1057      C1058   1.412       .  A
C1057      C1062   1.410       .  A
C1058      C1059   1.411       .  A
C1058     Br1070   1.929       .  S
C1059      C1060   1.410       .  A
C1059     Br1074   1.929       .  S
C1060      C1063   1.490       .  S
C1060      C1061   1.409       .  A
C1061      C1062   1.408       .  A
C1061     Br1069   1.929       .  S
C1062     Br1073   1.931       .  S
C1063      C1064   1.409       .  A
C1063      C1068   1.408       .  A
C1064      C1065   1.409       .  A
C1064     Br1075   1.930       .  S
C1065      C1066   1.413       .  A
C1065     Br1071   1.930   1_556  S
C1066      C1067   1.416       .  A
C1067      C1068   1.412       .  A
C1067     Br1076   1.928       .  S
C1068     Br1072   1.930       .  S
C1077      C1078   1.416       .  A
C1077      C1082   1.417       .  A
C1078      C1079   1.410       .  A
C1078     Br1090   1.932       .  S
C1079      C1080   1.408       .  A
C1079     Br1094   1.930       .  S
C1080      C1083   1.492       .  S
C1080      C1081   1.408       .  A
C1081      C1082   1.412       .  A
C1081     Br1089   1.930   1_556  S
C1082     Br1093   1.930   1_556  S
C1083      C1084   1.408       .  A
C1083      C1088   1.412       .  A
C1084      C1085   1.408       .  A
C1084     Br1095   1.931       .  S
C1085      C1086   1.413       .  A
C1085     Br1091   1.930       .  S
C1086      C1087   1.409       .  A
C1087      C1088   1.413       .  A
C1087     Br1096   1.927   1_556  S
C1088     Br1092   1.927   1_556  S
C1097      C1098   1.411       .  A
C1097      C1102   1.414   1_556  A
C1098      C1099   1.416       .  A
C1098     Br1110   1.927       .  S
C1099      C1100   1.414       .  A
C1099     Br1114   1.927       .  S
C1100      C1103   1.493       .  S
C1100      C1101   1.408   1_556  A
C1101      C1102   1.405       .  A
C1101     Br1109   1.932       .  S
C1102     Br1113   1.931       .  S
C1103      C1104   1.414       .  A
C1103      C1108   1.407       .  A
C1104      C1105   1.416       .  A
C1104     Br1115   1.928       .  S
C1105      C1106   1.411       .  A
C1105     Br1111   1.928       .  S
C1106      C1107   1.413   1_556  A
C1107      C1108   1.404   1_554  A
C1107     Br1116   1.930       .  S
C1108     Br1112   1.931   1_556  S
C1117      C1118   1.413       .  A
C1117      C1122   1.414   1_554  A
C1118      C1119   1.412       .  A
C1118     Br1130   1.932       .  S
C1119      C1120   1.411       .  A
C1119     Br1134   1.928       .  S
C1120      C1123   1.489       .  S
C1120      C1121   1.408   1_554  A
C1121      C1122   1.407       .  A
C1121     Br1129   1.931       .  S
C1122     Br1133   1.930       .  S
C1123      C1124   1.408       .  A
C1123      C1128   1.409   1_554  A
C1124      C1125   1.408       .  A
C1124     Br1135   1.930       .  S
C1125      C1126   1.415       .  A
C1125     Br1131   1.931       .  S
C1126      C1127   1.418   1_554  A
C1127      C1128   1.411       .  A
C1127     Br1136   1.931       .  S
C1128     Br1132   1.931       .  S
C1137      C1138   1.416   1_556  A
C1137      C1142   1.414       .  A
C1138      C1139   1.410       .  A
C1138     Br1150   1.931       .  S
C1139      C1140   1.409       .  A
C1139     Br1154   1.933       .  S
C1140      C1143   1.491       .  S
C1140      C1141   1.410   1_554  A
C1141      C1142   1.411       .  A
C1141     Br1149   1.931       .  S
C1142     Br1153   1.928       .  S
C1143      C1144   1.411   1_554  A
C1143      C1148   1.410       .  A
C1144      C1145   1.409   1_556  A
C1144     Br1155   1.928       .  S
C1145      C1146   1.411       .  A
C1145     Br1151   1.930   1_554  S
C1146      C1147   1.415       .  A
C1147      C1148   1.408       .  A
C1147     Br1156   1.932       .  S
C1148     Br1152   1.932       .  S
C1157      C1158   1.410       .  A
C1157      C1162   1.405   1_455  A
C1158      C1159   1.408       .  A
C1158     Br1170   1.928       .  S
C1159      C1160   1.409       .  A
C1159     Br1174   1.929       .  S
C1160      C1163   1.482       .  S
C1160      C1161   1.412   1_455  A
C1161      C1162   1.403       .  A
C1161     Br1169   1.931       .  S
C1162     Br1173   1.931   1_556  S
C1163      C1164   1.411       .  A
C1163      C1168   1.408       .  A
C1164      C1165   1.406       .  A
C1164     Br1175   1.929       .  S
C1165      C1166   1.406       .  A
C1165     Br1171   1.928       .  S
C1166      C1167   1.410       .  A
C1167      C1168   1.406       .  A
C1167     Br1176   1.928   1_455  S
C1168     Br1172   1.930   1_455  S
C1177      C1178   1.417       .  A
C1177      C1182   1.412       .  A
C1178      C1179   1.409       .  A
C1178     Br1190   1.927       .  S
C1179      C1180   1.405       .  A
C1179     Br1194   1.931       .  S
C1180      C1183   1.492       .  S
C1180      C1181   1.412       .  A
C1181      C1182   1.414       .  A
C1181     Br1189   1.930       .  S
C1182     Br1193   1.927       .  S
C1183      C1184   1.410       .  A
C1183      C1188   1.410       .  A
C1184      C1185   1.408       .  A
C1184     Br1195   1.929       .  S
C1185      C1186   1.410       .  A
C1185     Br1191   1.930       .  S
C1186      C1187   1.412       .  A
C1187      C1188   1.411       .  A
C1187     Br1196   1.929       .  S
C1188     Br1192   1.928       .  S
C1197      C1198   1.420       .  A
C1197      C1202   1.417       .  A
C1198      C1199   1.410       .  A
C1198     Br1210   1.930       .  S
C1199      C1200   1.406       .  A
C1199     Br1214   1.932       .  S
C1200      C1203   1.492       .  S
C1200      C1201   1.409       .  A
C1201      C1202   1.411       .  A
C1201     Br1209   1.929       .  S
C1202     Br1213   1.934       .  S
C1203      C1204   1.411       .  A
C1203      C1208   1.409       .  A
C1204      C1205   1.412       .  A
C1204     Br1215   1.930       .  S
C1205      C1206   1.411       .  A
C1205     Br1211   1.927       .  S
C1206      C1207   1.411       .  A
C1207      C1208   1.410       .  A
C1207     Br1216   1.927       .  S
C1208     Br1212   1.929       .  S
C1217      C1218   1.415       .  A
C1217      C1222   1.416       .  A
C1218      C1219   1.409       .  A
C1218     Br1230   1.924       .  S
C1219      C1220   1.407       .  A
C1219     Br1234   1.932       .  S
C1220      C1223   1.489       .  S
C1220      C1221   1.408       .  A
C1221      C1222   1.412       .  A
C1221     Br1229   1.930       .  S
C1222     Br1233   1.928       .  S
C1223      C1224   1.408       .  A
C1223      C1228   1.411       .  A
C1224      C1225   1.408       .  A
C1224     Br1235   1.930       .  S
C1225      C1226   1.413       .  A
C1225     Br1231   1.930       .  S
C1226      C1227   1.409       .  A
C1227      C1228   1.409       .  A
C1227     Br1236   1.928       .  S
C1228     Br1232   1.928       .  S
C1237      C1238   1.417       .  A
C1237      C1242   1.416       .  A
C1238      C1239   1.408       .  A
C1238     Br1250   1.930       .  S
C1239      C1240   1.406       .  A
C1239     Br1254   1.932       .  S
C1240      C1243   1.489       .  S
C1240      C1241   1.409       .  A
C1241      C1242   1.412       .  A
C1241     Br1249   1.928       .  S
C1242     Br1253   1.930       .  S
C1243      C1244   1.409       .  A
C1243      C1248   1.410       .  A
C1244      C1245   1.408       .  A
C1244     Br1255   1.930       .  S
C1245      C1246   1.411       .  A
C1245     Br1251   1.929       .  S
C1246      C1247   1.411       .  A
C1247      C1248   1.411       .  A
C1247     Br1256   1.927       .  S
C1248     Br1252   1.928       .  S
C1257      C1258   1.415       .  A
C1257      C1262   1.415       .  A
C1258      C1259   1.411       .  A
C1258     Br1270   1.930   1_655  S
C1259      C1260   1.409       .  A
C1259     Br1274   1.929   1_655  S
C1260      C1263   1.495       .  S
C1260      C1261   1.409       .  A
C1261      C1262   1.413       .  A
C1261     Br1269   1.929       .  S
C1262     Br1273   1.926       .  S
C1263      C1264   1.413   1_655  A
C1263      C1268   1.407       .  A
C1264      C1265   1.414       .  A
C1264     Br1275   1.928       .  S
C1265      C1266   1.409       .  A
C1265     Br1271   1.927       .  S
C1266      C1267   1.419   1_455  A
C1267      C1268   1.410       .  A
C1267     Br1276   1.932       .  S
C1268     Br1272   1.931       .  S
C1277      C1278   1.416       .  A
C1277      C1282   1.411       .  A
C1278      C1279   1.403       .  A
C1278     Br1290   1.929       .  S
C1279      C1280   1.406       .  A
C1279     Br1294   1.935       .  S
C1280      C1283   1.487       .  S
C1280      C1281   1.412       .  A
C1281      C1282   1.413       .  A
C1281     Br1289   1.928       .  S
C1282     Br1293   1.926       .  S
C1283      C1284   1.410       .  A
C1283      C1288   1.408       .  A
C1284      C1285   1.407   1_455  A
C1284     Br1295   1.930   1_455  S
C1285      C1286   1.411   1_655  A
C1285     Br1291   1.928       .  S
C1286      C1287   1.417       .  A
C1287      C1288   1.407       .  A
C1287     Br1296   1.932       .  S
C1288     Br1292   1.932       .  S
C1297      C1298   1.419   1_655  A
C1297      C1302   1.409       .  A
C1298      C1299   1.405       .  A
C1298     Br1310   1.932       .  S
C1299      C1300   1.404       .  A
C1299     Br1314   1.933       .  S
C1300      C1303   1.487       .  S
C1300      C1301   1.412   1_455  A
C1301      C1302   1.413       .  A
C1301     Br1309   1.928       .  S
C1302     Br1313   1.927       .  S
C1303      C1304   1.411       .  A
C1303      C1308   1.406       .  A
C1304      C1305   1.411       .  A
C1304     Br1315   1.930       .  S
C1305      C1306   1.412       .  A
C1305     Br1311   1.929       .  S
C1306      C1307   1.414       .  A
C1307      C1308   1.406       .  A
C1307     Br1316   1.931   1_455  S
C1308     Br1312   1.929   1_455  S
C1317      C1318   1.420   1_455  A
C1317      C1322   1.418       .  A
C1318      C1319   1.400       .  A
C1318     Br1330   1.927       .  S
C1319      C1320   1.401       .  A
C1319     Br1334   1.933       .  S
C1320      C1323   1.480       .  S
C1320      C1321   1.409   1_655  A
C1321      C1322   1.411       .  A
C1321     Br1329   1.932       .  S
C1322     Br1333   1.926       .  S
C1323      C1324   1.410       .  A
C1323      C1328   1.410       .  A
C1324      C1325   1.408       .  A
C1324     Br1335   1.928       .  S
C1325      C1326   1.408       .  A
C1325     Br1331   1.927       .  S
C1326      C1327   1.410       .  A
C1327      C1328   1.400       .  A
C1327     Br1336   1.935       .  S
C1328     Br1332   1.934   1_655  S
C1337      C1338   1.407       .  A
C1337      C1342   1.410   1_455  A
C1338      C1339   1.407       .  A
C1338     Br1350   1.930       .  S
C1339      C1340   1.412   1_455  A
C1339     Br1354   1.930       .  S
C1340      C1343   1.486       .  S
C1340      C1341   1.408       .  A
C1341      C1342   1.408       .  A
C1341     Br1349   1.927       .  S
C1342     Br1353   1.930       .  S
C1343      C1344   1.410       .  A
C1343      C1348   1.407   1_655  A
C1344      C1345   1.410       .  A
C1344     Br1355   1.929       .  S
C1345      C1346   1.410       .  A
C1345     Br1351   1.930       .  S
C1346      C1347   1.411   1_655  A
C1347      C1348   1.407       .  A
C1347     Br1356   1.928       .  S
C1348     Br1352   1.930       .  S
C1357      C1358   1.416       .  A
C1357      C1362   1.418       .  A
C1358      C1359   1.408       .  A
C1358     Br1370   1.933       .  S
C1359      C1360   1.410       .  A
C1359     Br1374   1.932       .  S
C1360      C1363   1.488       .  S
C1360      C1361   1.407       .  A
C1361      C1362   1.408       .  A
C1361     Br1369   1.933       .  S
C1362     Br1373   1.927       .  S
C1363      C1364   1.414       .  A
C1363      C1368   1.409       .  A
C1364      C1365   1.409       .  A
C1364     Br1375   1.929       .  S
C1365      C1366   1.407       .  A
C1365     Br1371   1.929       .  S
C1366      C1367   1.412       .  A
C1367      C1368   1.405       .  A
C1367     Br1376   1.931       .  S
C1368     Br1372   1.933       .  S
C1377      C1378   1.414       .  A
C1377      C1382   1.414       .  A
C1378      C1379   1.407       .  A
C1378     Br1390   1.931       .  S
C1379      C1380   1.408       .  A
C1379     Br1394   1.931       .  S
C1380      C1383   1.483       .  S
C1380      C1381   1.407       .  A
C1381      C1382   1.407       .  A
C1381     Br1389   1.931       .  S
C1382     Br1393   1.931       .  S
C1383      C1384   1.410       .  A
C1383      C1388   1.406       .  A
C1384      C1385   1.411       .  A
C1384     Br1395   1.931       .  S
C1385      C1386   1.415       .  A
C1385     Br1391   1.930       .  S
C1386      C1387   1.414       .  A
C1387      C1388   1.403       .  A
C1387     Br1396   1.931       .  S
C1388     Br1392   1.932       .  S
C1397      C1398   1.407       .  A
C1397      C1402   1.416       .  A
C1398      C1399   1.410       .  A
C1398     Br1410   1.929       .  S
C1399      C1400   1.413       .  A
C1399     Br1414   1.928       .  S
C1400      C1403   1.487       .  S
C1400      C1401   1.406       .  A
C1401      C1402   1.406       .  A
C1401     Br1409   1.932       .  S
C1402     Br1413   1.931       .  S
C1403      C1404   1.411       .  A
C1403      C1408   1.409       .  A
C1404      C1405   1.408       .  A
C1404     Br1415   1.929       .  S
C1405      C1406   1.408       .  A
C1405     Br1411   1.929       .  S
C1406      C1407   1.411       .  A
C1407      C1408   1.408       .  A
C1407     Br1416   1.930       .  S
C1408     Br1412   1.930       .  S
C1417      C1418   1.415       .  A
C1417      C1422   1.408       .  A
C1418      C1419   1.406       .  A
C1418     Br1430   1.932       .  S
C1419      C1420   1.406       .  A
C1419     Br1434   1.932       .  S
C1420      C1423   1.483       .  S
C1420      C1421   1.412       .  A
C1421      C1422   1.409       .  A
C1421     Br1429   1.929       .  S
C1422     Br1433   1.929       .  S
C1423      C1424   1.408       .  A
C1423      C1428   1.410       .  A
C1424      C1425   1.404       .  A
C1424     Br1435   1.930       .  S
C1425      C1426   1.412       .  A
C1425     Br1431   1.933       .  S
C1426      C1427   1.409       .  A
C1427      C1428   1.408       .  A
C1427     Br1436   1.930       .  S
C1428     Br1432   1.928       .  S
C1437      C1438   1.421       .  A
C1437      C1442   1.413       .  A
C1438      C1439   1.405       .  A
C1438     Br1450   1.932       .  S
C1439      C1440   1.406       .  A
C1439     Br1454   1.934       .  S
C1440      C1443   1.496       .  S
C1440      C1441   1.414       .  A
C1441      C1442   1.418       .  A
C1441     Br1449   1.927       .  S
C1442     Br1453   1.927       .  S
C1443      C1444   1.414       .  A
C1443      C1448   1.410       .  A
C1444      C1445   1.415       .  A
C1444     Br1455   1.927       .  S
C1445      C1446   1.410       .  A
C1445     Br1451   1.929       .  S
C1446      C1447   1.413       .  A
C1447      C1448   1.408       .  A
C1447     Br1456   1.931       .  S
C1448     Br1452   1.932       .  S
C1457      C1458   1.416       .  A
C1457      C1462   1.416       .  A
C1458      C1459   1.412       .  A
C1458     Br1470   1.933       .  S
C1459      C1460   1.410       .  A
C1459     Br1474   1.930       .  S
C1460      C1463   1.501       .  S
C1460      C1461   1.411       .  A
C1461      C1462   1.416       .  A
C1461     Br1469   1.929       .  S
C1462     Br1473   1.928       .  S
C1463      C1464   1.410       .  A
C1463      C1468   1.411       .  A
C1464      C1465   1.413       .  A
C1464     Br1475   1.930   1_554  S
C1465      C1466   1.416       .  A
C1465     Br1471   1.931   1_554  S
C1466      C1467   1.415       .  A
C1467      C1468   1.416       .  A
C1467     Br1476   1.929       .  S
C1468     Br1472   1.928       .  S
C1477      C1478   1.416       .  A
C1477      C1482   1.417       .  A
C1478      C1479   1.410       .  A
C1478     Br1490   1.931       .  S
C1479      C1480   1.408       .  A
C1479     Br1494   1.930       .  S
C1480      C1483   1.488       .  S
C1480      C1481   1.407       .  A
C1481      C1482   1.410       .  A
C1481     Br1489   1.931   1_554  S
C1482     Br1493   1.930   1_554  S
C1483      C1484   1.411       .  A
C1483      C1488   1.409   1_655  A
C1484      C1485   1.410   1_655  A
C1484     Br1495   1.927       .  S
C1485      C1486   1.407       .  A
C1485     Br1491   1.929       .  S
C1486      C1487   1.410       .  A
C1487      C1488   1.407       .  A
C1487     Br1496   1.929       .  S
C1488     Br1492   1.930   1_455  S
C1497      C1498   1.417       .  A
C1497      C1502   1.418       .  A
C1498      C1499   1.406       .  A
C1498     Br1510   1.927   1_554  S
C1499      C1500   1.405       .  A
C1499     Br1514   1.934   1_554  S
C1500      C1503   1.484       .  S
C1500      C1501   1.408       .  A
C1501      C1502   1.411       .  A
C1501     Br1509   1.932       .  S
C1502     Br1513   1.931       .  S
C1503      C1504   1.410       .  A
C1503      C1508   1.411       .  A
C1504      C1505   1.406       .  A
C1504     Br1515   1.930       .  S
C1505      C1506   1.409       .  A
C1505     Br1511   1.930       .  S
C1506      C1507   1.405       .  A
C1507      C1508   1.406       .  A
C1507     Br1516   1.931       .  S
C1508     Br1512   1.928       .  S
C1517      C1518   1.414       .  A
C1517      C1522   1.414       .  A
C1518      C1519   1.407       .  A
C1518     Br1530   1.931       .  S
C1519      C1520   1.408       .  A
C1519     Br1534   1.930       .  S
C1520      C1523   1.489       .  S
C1520      C1521   1.411       .  A
C1521      C1522   1.410       .  A
C1521     Br1529   1.931   1_554  S
C1522     Br1533   1.932   1_554  S
C1523      C1524   1.409       .  A
C1523      C1528   1.410       .  A
C1524      C1525   1.407       .  A
C1524     Br1535   1.930       .  S
C1525      C1526   1.413       .  A
C1525     Br1531   1.930       .  S
C1526      C1527   1.412       .  A
C1527      C1528   1.410       .  A
C1527     Br1536   1.930       .  S
C1528     Br1532   1.929       .  S
C1537      C1538   1.420   1_556  A
C1537      C1542   1.416       .  A
C1538      C1539   1.411       .  A
C1538     Br1550   1.930       .  S
C1539      C1540   1.407   1_554  A
C1539     Br1554   1.933       .  S
C1540      C1543   1.491       .  S
C1540      C1541   1.409       .  A
C1541      C1542   1.412       .  A
C1541     Br1549   1.931       .  S
C1542     Br1553   1.930       .  S
C1543      C1544   1.410       .  A
C1543      C1548   1.410       .  A
C1544      C1545   1.408       .  A
C1544     Br1555   1.928       .  S
C1545      C1546   1.411       .  A
C1545     Br1551   1.929       .  S
C1546      C1547   1.414       .  A
C1547      C1548   1.409       .  A
C1547     Br1556   1.932       .  S
C1548     Br1552   1.929       .  S
C1557      C1558   1.412       .  A
C1557      C1562   1.414   1_554  A
C1558      C1559   1.414       .  A
C1558     Br1570   1.931       .  S
C1559      C1560   1.414       .  A
C1559     Br1574   1.927       .  S
C1560      C1563   1.500   1_565  S
C1560      C1561   1.411   1_554  A
C1561      C1562   1.410       .  A
C1561     Br1569   1.931       .  S
C1562     Br1573   1.931       .  S
C1563      C1564   1.407       .  A
C1563      C1568   1.414       .  A
C1564      C1565   1.411       .  A
C1564     Br1575   1.933       .  S
C1565      C1566   1.419       .  A
C1565     Br1571   1.928       .  S
C1566      C1567   1.415       .  A
C1567      C1568   1.418       .  A
C1567     Br1576   1.928       .  S
C1568     Br1572   1.928       .  S
C1577      C1578   1.410   1_556  A
C1577      C1582   1.409       .  A
C1578      C1579   1.407       .  A
C1578     Br1590   1.929       .  S
C1579      C1580   1.408   1_554  A
C1579     Br1594   1.929       .  S
C1580      C1583   1.482       .  S
C1580      C1581   1.410       .  A
C1581      C1582   1.406       .  A
C1581     Br1589   1.931       .  S
C1582     Br1593   1.930       .  S
C1583      C1584   1.410       .  A
C1583      C1588   1.406   1_556  A
C1584      C1585   1.408       .  A
C1584     Br1595   1.929       .  S
C1585      C1586   1.412       .  A
C1585     Br1591   1.932       .  S
C1586      C1587   1.413   1_556  A
C1587      C1588   1.403       .  A
C1587     Br1596   1.931       .  S
C1588     Br1592   1.931       .  S
C1597      C1598   1.410   1_556  A
C1597      C1602   1.413       .  A
C1598      C1599   1.409       .  A
C1598     Br1610   1.930       .  S
C1599      C1600   1.410   1_654  A
C1599     Br1614   1.928   1_655  S
C1600      C1603   1.485   1_556  S
C1600      C1601   1.408   1_455  A
C1601      C1602   1.407       .  A
C1601     Br1609   1.931   1_655  S
C1602     Br1613   1.931       .  S
C1603      C1604   1.410       .  A
C1603      C1608   1.406   1_554  A
C1604      C1605   1.411       .  A
C1604     Br1615   1.929       .  S
C1605      C1606   1.414   1_554  A
C1605     Br1611   1.930       .  S
C1606      C1607   1.415       .  A
C1607      C1608   1.405       .  A
C1607     Br1616   1.930       .  S
C1608     Br1612   1.932       .  S
C1617      C1618   1.415       .  A
C1617      C1622   1.415       .  A
C1618      C1619   1.416       .  A
C1618     Br1630   1.925       .  S
C1619      C1620   1.411       .  A
C1619     Br1634   1.928       .  S
C1620      C1623   1.498       .  S
C1620      C1621   1.409       .  A
C1621      C1622   1.410       .  A
C1621     Br1629   1.930       .  S
C1622     Br1633   1.931   1_556  S
C1623      C1624   1.410       .  A
C1623      C1628   1.410       .  A
C1624      C1625   1.413       .  A
C1624     Br1635   1.931       .  S
C1625      C1626   1.418       .  A
C1625     Br1631   1.932       .  S
C1626      C1627   1.416       .  A
C1627      C1628   1.413       .  A
C1627     Br1636   1.929       .  S
C1628     Br1632   1.929       .  S
C1637      C1638   1.410       .  A
C1637      C1642   1.410       .  A
C1638      C1639   1.409       .  A
C1638     Br1650   1.927       .  S
C1639      C1640   1.408       .  A
C1639     Br1654   1.927       .  S
C1640      C1643   1.486   1_545  S
C1640      C1641   1.410       .  A
C1641      C1642   1.406       .  A
C1641     Br1649   1.931   1_545  S
C1642     Br1653   1.932       .  S
C1643      C1644   1.406       .  A
C1643      C1648   1.412       .  A
C1644      C1645   1.406       .  A
C1644     Br1655   1.930       .  S
C1645      C1646   1.412       .  A
C1645     Br1651   1.929       .  S
C1646      C1647   1.407       .  A
C1647      C1648   1.410       .  A
C1647     Br1656   1.928       .  S
C1648     Br1652   1.928       .  S
C1657      C1658   1.412       .  A
C1657      C1662   1.412       .  A
C1658      C1659   1.410       .  A
C1658     Br1670   1.930       .  S
C1659      C1660   1.411       .  A
C1659     Br1674   1.929       .  S
C1660      C1663   1.489       .  S
C1660      C1661   1.409       .  A
C1661      C1662   1.407       .  A
C1661     Br1669   1.931       .  S
C1662     Br1673   1.932       .  S
C1663      C1664   1.407       .  A
C1663      C1668   1.412       .  A
C1664      C1665   1.406       .  A
C1664     Br1675   1.931       .  S
C1665      C1666   1.415       .  A
C1665     Br1671   1.931       .  S
C1666      C1667   1.412       .  A
C1667      C1668   1.412       .  A
C1667     Br1676   1.927       .  S
C1668     Br1672   1.931       .  S
C1677      C1678   1.415       .  A
C1677      C1682   1.413       .  A
C1678      C1679   1.414       .  A
C1678     Br1690   1.929       .  S
C1679      C1680   1.410       .  A
C1679     Br1694   1.928       .  S
C1680      C1683   1.498       .  S
C1680      C1681   1.411       .  A
C1681      C1682   1.412       .  A
C1681     Br1689   1.930       .  S
C1682     Br1693   1.930       .  S
C1683      C1684   1.412       .  A
C1683      C1688   1.409       .  A
C1684      C1685   1.414       .  A
C1684     Br1695   1.929       .  S
C1685      C1686   1.414       .  A
C1685     Br1691   1.929       .  S
C1686      C1687   1.417       .  A
C1687      C1688   1.412       .  A
C1687     Br1696   1.931       .  S
C1688     Br1692   1.929       .  S
C1697      C1698   1.417       .  A
C1697      C1702   1.415       .  A
C1698      C1699   1.413       .  A
C1698     Br1710   1.929       .  S
C1699      C1700   1.411       .  A
C1699     Br1714   1.932       .  S
C1700      C1703   1.496       .  S
C1700      C1701   1.410       .  A
C1701      C1702   1.410       .  A
C1701     Br1709   1.931       .  S
C1702     Br1713   1.930       .  S
C1703      C1704   1.409       .  A
C1703      C1708   1.411       .  A
C1704      C1705   1.408       .  A
C1704     Br1715   1.930       .  S
C1705      C1706   1.416       .  A
C1705     Br1711   1.929       .  S
C1706      C1707   1.418       .  A
C1707      C1708   1.413       .  A
C1707     Br1716   1.928       .  S
C1708     Br1712   1.932       .  S
C1717      C1718   1.414       .  A
C1717      C1722   1.416       .  A
C1718      C1719   1.413       .  A
C1718     Br1730   1.929       .  S
C1719      C1720   1.411       .  A
C1719     Br1734   1.929       .  S
C1720      C1723   1.497       .  S
C1720      C1721   1.410       .  A
C1721      C1722   1.412       .  A
C1721     Br1729   1.930       .  S
C1722     Br1733   1.931       .  S
C1723      C1724   1.413       .  A
C1723      C1728   1.410       .  A
C1724      C1725   1.414       .  A
C1724     Br1735   1.928       .  S
C1725      C1726   1.411       .  A
C1725     Br1731   1.929       .  S
C1726      C1727   1.410       .  A
C1727      C1728   1.410       .  A
C1727     Br1736   1.928       .  S
C1728     Br1732   1.929       .  S
C1737      C1738   1.412       .  A
C1737      C1742   1.413       .  A
C1738      C1739   1.406       .  A
C1738     Br1750   1.929       .  S
C1739      C1740   1.409       .  A
C1739     Br1754   1.932   1_655  S
C1740      C1743   1.483   1_655  S
C1740      C1741   1.407       .  A
C1741      C1742   1.409       .  A
C1741     Br1749   1.928       .  S
C1742     Br1753   1.929       .  S
C1743      C1744   1.408       .  A
C1743      C1748   1.410       .  A
C1744      C1745   1.406       .  A
C1744     Br1755   1.929       .  S
C1745      C1746   1.409       .  A
C1745     Br1751   1.930       .  S
C1746      C1747   1.408       .  A
C1747      C1748   1.408       .  A
C1747     Br1756   1.928       .  S
C1748     Br1752   1.928       .  S
C1757      C1758   1.416       .  A
C1757      C1762   1.423       .  A
C1758      C1759   1.412       .  A
C1758     Br1770   1.929       .  S
C1759      C1760   1.410       .  A
C1759     Br1774   1.932       .  S
C1760      C1763   1.489       .  S
C1760      C1761   1.405       .  A
C1761      C1762   1.410       .  A
C1761     Br1769   1.934       .  S
C1762     Br1773   1.932       .  S
C1763      C1764   1.405       .  A
C1763      C1768   1.410       .  A
C1764      C1765   1.405       .  A
C1764     Br1775   1.934       .  S
C1765      C1766   1.418       .  A
C1765     Br1771   1.930       .  S
C1766      C1767   1.418       .  A
C1767      C1768   1.413       .  A
C1767     Br1776   1.933       .  S
C1768     Br1772   1.929       .  S
C1777      C1778   1.416       .  A
C1777      C1782   1.417       .  A
C1778      C1779   1.415       .  A
C1778     Br1790   1.927       .  S
C1779      C1780   1.412       .  A
C1779     Br1794   1.929       .  S
C1780      C1783   1.506       .  S
C1780      C1781   1.411       .  A
C1781      C1782   1.416       .  A
C1781     Br1789   1.928       .  S
C1782     Br1793   1.931       .  S
C1783      C1784   1.408       .  A
C1783      C1788   1.406       .  A
C1784      C1785   1.419       .  A
C1784     Br1795   1.933       .  S
C1785      C1786   1.428       .  A
C1785     Br1791   1.928       .  S
C1786      C1787   1.428       .  A
C1787      C1788   1.417       .  A
C1787     Br1796   1.928       .  S
C1788     Br1792   1.931       .  S
C1797      C1798   1.412       .  A
C1797      C1802   1.411       .  A
C1798      C1799   1.411       .  A
C1798     Br1810   1.929       .  S
C1799      C1800   1.410       .  A
C1799     Br1814   1.928       .  S
C1800      C1803   1.500       .  S
C1800      C1801   1.414       .  A
C1801      C1802   1.414       .  A
C1801     Br1809   1.927       .  S
C1802     Br1813   1.930       .  S
C1803      C1804   1.409       .  A
C1803      C1808   1.412       .  A
C1804      C1805   1.413       .  A
C1804     Br1815   1.929       .  S
C1805      C1806   1.415       .  A
C1805     Br1811   1.929       .  S
C1806      C1807   1.414       .  A
C1807      C1808   1.415       .  A
C1807     Br1816   1.926       .  S
C1808     Br1812   1.930       .  S
C1817      C1818   1.409       .  A
C1817      C1822   1.408       .  A
C1818      C1819   1.405       .  A
C1818     Br1830   1.925       .  S
C1819      C1820   1.408       .  A
C1819     Br1834   1.931       .  S
C1820      C1823   1.484       .  S
C1820      C1821   1.411       .  A
C1821      C1822   1.409       .  A
C1821     Br1829   1.928       .  S
C1822     Br1833   1.928       .  S
C1823      C1824   1.409       .  A
C1823      C1828   1.411       .  A
C1824      C1825   1.407       .  A
C1824     Br1835   1.930       .  S
C1825      C1826   1.410       .  A
C1825     Br1831   1.929       .  S
C1826      C1827   1.407       .  A
C1827      C1828   1.408       .  A
C1827     Br1836   1.928       .  S
C1828     Br1832   1.929       .  S
C1837      C1838   1.412       .  A
C1837      C1842   1.413       .  A
C1838      C1839   1.409       .  A
C1838     Br1850   1.929       .  S
C1839      C1840   1.408       .  A
C1839     Br1854   1.930       .  S
C1840      C1843   1.483       .  S
C1840      C1841   1.408       .  A
C1841      C1842   1.407       .  A
C1841     Br1849   1.932       .  S
C1842     Br1853   1.929       .  S
C1843      C1844   1.404       .  A
C1843      C1848   1.411       .  A
C1844      C1845   1.402       .  A
C1844     Br1855   1.933       .  S
C1845      C1846   1.418       .  A
C1845     Br1851   1.935       .  S
C1846      C1847   1.410       .  A
C1847      C1848   1.411       .  A
C1847     Br1856   1.929       .  S
C1848     Br1852   1.927       .  S
C1857      C1858   1.410       .  A
C1857      C1862   1.410       .  A
C1858      C1859   1.406       .  A
C1858     Br1870   1.929       .  S
C1859      C1860   1.410       .  A
C1859     Br1874   1.930       .  S
C1860      C1863   1.489       .  S
C1860      C1861   1.411       .  A
C1861      C1862   1.409       .  A
C1861     Br1869   1.928       .  S
C1862     Br1873   1.931       .  S
C1863      C1864   1.409       .  A
C1863      C1868   1.405       .  A
C1864      C1865   1.412       .  A
C1864     Br1875   1.932       .  S
C1865      C1866   1.417       .  A
C1865     Br1871   1.929       .  S
C1866      C1867   1.421       .  A
C1867      C1868   1.409       .  A
C1867     Br1876   1.932       .  S
C1868     Br1872   1.933       .  S
C1877      C1878   1.412       .  A
C1877      C1882   1.411       .  A
C1878      C1879   1.412       .  A
C1878     Br1890   1.927       .  S
C1879      C1880   1.409       .  A
C1879     Br1894   1.929       .  S
C1880      C1883   1.489   1_545  S
C1880      C1881   1.410       .  A
C1881      C1882   1.408       .  A
C1881     Br1889   1.930       .  S
C1882     Br1893   1.932       .  S
C1883      C1884   1.411       .  A
C1883      C1888   1.409       .  A
C1884      C1885   1.408       .  A
C1884     Br1895   1.928   1_565  S
C1885      C1886   1.406       .  A
C1885     Br1891   1.928       .  S
C1886      C1887   1.411       .  A
C1887      C1888   1.410       .  A
C1887     Br1896   1.929       .  S
C1888     Br1892   1.928       .  S
C1897      C1898   1.414       .  A
C1897      C1902   1.413       .  A
C1898      C1899   1.410       .  A
C1898     Br1910   1.926       .  S
C1899      C1900   1.408   1_455  A
C1899     Br1914   1.931   1_455  S
C1900      C1903   1.489       .  S
C1900      C1901   1.410       .  A
C1901      C1902   1.409   1_655  A
C1901     Br1909   1.932       .  S
C1902     Br1913   1.928       .  S
C1903      C1904   1.412       .  A
C1903      C1908   1.406       .  A
C1904      C1905   1.413       .  A
C1904     Br1915   1.929       .  S
C1905      C1906   1.414       .  A
C1905     Br1911   1.929       .  S
C1906      C1907   1.415       .  A
C1907      C1908   1.404       .  A
C1907     Br1916   1.928       .  S
C1908     Br1912   1.933       .  S
C1917      C1918   1.412       .  A
C1917      C1922   1.412       .  A
C1918      C1919   1.414       .  A
C1918     Br1930   1.930       .  S
C1919      C1920   1.413       .  A
C1919     Br1934   1.926       .  S
C1920      C1923   1.494       .  S
C1920      C1921   1.408       .  A
C1921      C1922   1.406       .  A
C1921     Br1929   1.930       .  S
C1922     Br1933   1.930       .  S
C1923      C1924   1.406       .  A
C1923      C1928   1.407       .  A
C1924      C1925   1.413       .  A
C1924     Br1935   1.930       .  S
C1925      C1926   1.423       .  A
C1925     Br1931   1.931       .  S
C1926      C1927   1.425       .  A
C1927      C1928   1.412       .  A
C1927     Br1936   1.934       .  S
C1928     Br1932   1.933       .  S
C1937      C1938   1.422       .  A
C1937      C1942   1.418       .  A
C1938      C1939   1.408       .  A
C1938     Br1950   1.930       .  S
C1939      C1940   1.405       .  A
C1939     Br1954   1.934       .  S
C1940      C1943   1.492       .  S
C1940      C1941   1.410       .  A
C1941      C1942   1.414       .  A
C1941     Br1949   1.930       .  S
C1942     Br1953   1.930       .  S
C1943      C1944   1.409       .  A
C1943      C1948   1.408       .  A
C1944      C1945   1.412       .  A
C1944     Br1955   1.931       .  S
C1945      C1946   1.417       .  A
C1945     Br1951   1.928       .  S
C1946      C1947   1.415       .  A
C1947      C1948   1.409       .  A
C1947     Br1956   1.930       .  S
C1948     Br1952   1.931       .  S
C1957      C1958   1.415       .  A
C1957      C1962   1.410       .  A
C1958      C1959   1.402       .  A
C1958     Br1970   1.931       .  S
C1959      C1960   1.403       .  A
C1959     Br1974   1.931       .  S
C1960      C1963   1.481       .  S
C1960      C1961   1.412       .  A
C1961      C1962   1.411       .  A
C1961     Br1969   1.929       .  S
C1962     Br1973   1.929       .  S
C1963      C1964   1.409       .  A
C1963      C1968   1.407       .  A
C1964      C1965   1.406       .  A
C1964     Br1975   1.931       .  S
C1965      C1966   1.410       .  A
C1965     Br1971   1.931       .  S
C1966      C1967   1.412       .  A
C1967      C1968   1.406       .  A
C1967     Br1976   1.931       .  S
C1968     Br1972   1.928       .  S
C1977      C1978   1.418       .  A
C1977      C1982   1.418       .  A
C1978      C1979   1.408       .  A
C1978     Br1990   1.925       .  S
C1979      C1980   1.406       .  A
C1979     Br1994   1.932       .  S
C1980      C1983   1.476       .  S
C1980      C1981   1.403       .  A
C1981      C1982   1.402       .  A
C1981     Br1989   1.933       .  S
C1982     Br1993   1.931       .  S
C1983      C1984   1.403       .  A
C1983      C1988   1.407       .  A
C1984      C1985   1.401       .  A
C1984     Br1995   1.931       .  S
C1985      C1986   1.414       .  A
C1985     Br1991   1.924       .  S
C1986      C1987   1.418       .  A
C1987      C1988   1.406       .  A
C1987     Br1996   1.930       .  S
C1988     Br1992   1.931       .  S
C1997      C1998   1.412       .  A
C1997      C2002   1.407       .  A
C1998      C1999   1.404       .  A
C1998     Br2010   1.931       .  S
C1999      C2000   1.406       .  A
C1999     Br2014   1.930       .  S
C2000      C2003   1.472   1_565  S
C2000      C2001   1.407       .  A
C2001      C2002   1.400       .  A
C2001     Br2009   1.932       .  S
C2002     Br2013   1.925       .  S
C2003      C2004   1.402       .  A
C2003      C2008   1.410       .  A
C2004      C2005   1.401       .  A
C2004     Br2015   1.933       .  S
C2005      C2006   1.416       .  A
C2005     Br2011   1.930       .  S
C2006      C2007   1.408       .  A
C2007      C2008   1.405       .  A
C2007     Br2016   1.928       .  S
C2008     Br2012   1.931       .  S
