geometry optimzed in LAMMPS
_audit_creation_date              2020-12-01 
_audit_creation_method            'lammps2cif' 
_symmetry_space_group_name_H-M    'P1' 
_symmetry_Int_Tables_number       1 
_symmetry_cell_setting            triclinic 
loop_ 
_symmetry_equiv_pos_as_xyz 
  x,y,z 
_cell_length_a                    54.18999165 
_cell_length_b                    26.98811689325535 
_cell_length_c                    29.32427719862356 
_cell_angle_alpha                 90.27752674509098 
_cell_angle_beta                  117.50512575505921 
_cell_angle_gamma                 89.76209354932541 
loop_ 
_atom_site_label 
_atom_site_type_symbol 
_atom_site_fract_x 
_atom_site_fract_y 
_atom_site_fract_z 
_atom_site_charge 
Fe1        Fe  0.09676117  0.42004095  0.41913716     1.65800
Fe2        Fe  0.11387562  0.31517031  0.37778167     1.73200
Fe3        Fe  0.05687293  0.38030967  0.29959096     1.54400
O4          O  0.03359233  0.41744658  0.33044164    -0.80200
O5          O  0.11814136  0.32845767  0.31308463    -0.78500
O6          O  0.05870680  0.40729968  0.41438920    -0.82700
O7          O  0.08122209  0.47871784  0.36610453    -0.77600
O8          O  0.04166448  0.31448721  0.30865531    -0.79400
O9          O  0.15005918  0.35815975  0.41908171    -0.82100
C10         C  0.07378574  0.48373872  0.31816033     0.98700
C11         C  0.03654222  0.42043352  0.37602533     1.06100
O12         O  0.08954802  0.37177869  0.36550778    -1.11100
O13         O  0.11099195  0.29598871  0.44258751    -0.73500
O14         O  0.11190106  0.36869942  0.47888639    -0.77000
O15         O  0.07161610  0.44672055  0.28977799    -0.77700
C16         C  0.11185235  0.32158730  0.47952103     0.97600
O17         O  0.13530471  0.43376920  0.42658468    -0.75700
O18         O  0.07992437  0.26728860  0.33735567    -0.80800
C19         C  0.09872826  0.33033867  0.26742298     1.00200
C20         C  0.05348668  0.27239836  0.31800418     1.06100
O21         O  0.07440051  0.34488465  0.25762014    -0.76500
C22         C  0.15432510  0.40444307  0.42961396     1.04400
Fe23       Fe  0.10520153  0.06492530  0.92651652     1.65800
Fe24       Fe  0.12055623  0.16649982  0.88019375     1.73200
Fe25       Fe  0.05723310  0.11665879  0.81864062     1.54400
O26         O  0.06197625  0.04729579  0.79705929    -0.80200
O27         O  0.08928249  0.22134701  0.84462669    -0.78500
O28         O  0.07993662  0.01018329  0.87313183    -0.82700
O29         O  0.07407694  0.08431259  0.94205208    -0.77600
O30         O  0.07117294  0.14491593  0.76716872    -0.79400
O31         O  0.12286826  0.18786686  0.94845105    -0.82100
C32         C  0.04836583  0.08396501  0.91209645     0.98700
C33         C  0.06555142  0.00899927  0.82406203     1.06100
O34         O  0.09444071  0.11545178  0.87460862    -1.11100
O35         O  0.15549451  0.11868841  0.91640752    -0.73500
O36         O  0.13796714  0.04386318  0.91438240    -0.77000
O37         O  0.03867746  0.08879084  0.86343412    -0.77700
C38         C  0.15815986  0.07152147  0.92091351     0.97600
O39         O  0.12938091  0.11467445  0.98635903    -0.75700
O40         O  0.11738860  0.14687516  0.81058832    -0.80800
C41         C  0.06387244  0.22402447  0.83577580     1.00200
C42         C  0.09504708  0.15070617  0.76878374     1.06100
O43         O  0.05094472  0.18610580  0.83818400    -0.76500
C44         C  0.12722596  0.16189881  0.98724915     1.04400
Fe45       Fe  0.39644991  0.56263751  0.55312116     1.65800
Fe46       Fe  0.37854187  0.66374308  0.59744333     1.73200
Fe47       Fe  0.44163463  0.61253406  0.66517993     1.54400
O48         O  0.43584526  0.54225457  0.68337831    -0.80200
O49         O  0.40914815  0.71865393  0.63476164    -0.78500
O50         O  0.42093969  0.50751860  0.60641029    -0.82700
O51         O  0.42921317  0.58356290  0.54323918    -0.77600
O52         O  0.42552581  0.63939559  0.71344505    -0.79400
O53         O  0.37750517  0.68486731  0.52955928    -0.82100
C54         C  0.45446472  0.58057692  0.57598139     0.98700
C55         C  0.43388587  0.50504313  0.65553232     1.06100
O56         O  0.40537667  0.61258508  0.60574762    -1.11100
O57         O  0.34438189  0.61526611  0.56019084    -0.73500
O58         O  0.36227915  0.54082106  0.55984477    -0.77000
O59         O  0.46237983  0.58517656  0.62413415    -0.77700
C60         C  0.34192492  0.56826285  0.55367087     0.97600
O61         O  0.37290886  0.61138411  0.49250398    -0.75700
O62         O  0.37960073  0.64531721  0.66575575    -0.80800
C63         C  0.43520370  0.72113061  0.64858347     1.00200
C64         C  0.40117052  0.64633440  0.70906239     1.06100
O65         O  0.44927799  0.68299671  0.65012332    -0.76500
C66         C  0.37370354  0.65862186  0.49092401     1.04400
Fe67       Fe  0.40235410  0.91249085  0.05947029     1.65800
Fe68       Fe  0.38529077  0.80933219  0.10156066     1.73200
Fe69       Fe  0.44432130  0.86978421  0.17647672     1.54400
O70         O  0.46648934  0.90416062  0.14169750    -0.80200
O71         O  0.38266631  0.82494399  0.16764545    -0.78500
O72         O  0.43863070  0.89527088  0.05821223    -0.82700
O73         O  0.42214906  0.96987855  0.11320407    -0.77600
O74         O  0.45780008  0.80281761  0.16512961    -0.79400
O75         O  0.34952765  0.85452985  0.06118311    -0.82100
C76         C  0.43169213  0.97358205  0.16189729     0.98700
C77         C  0.46185718  0.90685285  0.09494888     1.06100
O78         O  0.41038478  0.86372887  0.11253360    -1.11100
O79         O  0.38666597  0.78929959  0.03549575    -0.73500
O80         O  0.38301515  0.86241403  0.99871548    -0.77000
O81         O  0.43126533  0.93713500  0.18847695    -0.77700
C82         C  0.38323230  0.81528301  0.99721855     0.97600
O83         O  0.36547256  0.92997455  0.05825144    -0.75700
O84         O  0.41875092  0.75913762  0.14072473    -0.80800
C85         C  0.40295414  0.82478062  0.21248033     1.00200
C86         C  0.44523047  0.76180110  0.15804882     1.06100
O87         O  0.42750631  0.83619200  0.22069967    -0.76500
C88         C  0.34566141  0.90108727  0.05157817     1.04400
C89         C  0.37542331  0.71210170  0.90329067     0.14100
C90         C  0.38446284  0.73557340  0.87115971     0.01100
C91         C  0.39009627  0.78661317  0.87690892     0.16100
C92         C  0.38815578  0.81339665  0.91607432     0.25500
C93         C  0.38063760  0.78940539  0.95042259    -0.40900
C94         C  0.37353040  0.73867732  0.94259887     0.32500
C95         C  0.38918551  0.70670596  0.83294840     0.01100
F96         F  0.39807753  0.81028699  0.84512035    -0.13200
F97         F  0.36537016  0.71432688  0.97375887    -0.13700
C98         C  0.36691572  0.68401970  0.79117215     0.16100
C99         C  0.37112809  0.66103474  0.75247351     0.25500
C100        C  0.39778367  0.66053282  0.75486976    -0.40800
C101        C  0.42039672  0.68023849  0.79889287     0.32400
C102        C  0.41605403  0.70325614  0.83738076     0.14100
F103        F  0.34082429  0.68628605  0.78656637    -0.13200
F104        F  0.44652341  0.67989447  0.80359199    -0.13700
F105        F  0.34886565  0.64080631  0.71183626    -0.16000
F106        F  0.43804472  0.72342660  0.87855129    -0.14500
F107        F  0.36961724  0.66288436  0.89804200    -0.14500
F108        F  0.39510660  0.86213736  0.92190187    -0.15900
C109        C  0.37647810  0.68187182  0.36509941     0.14100
C110        C  0.37826850  0.73382227  0.36522382     0.01100
C111        C  0.37511498  0.76092144  0.40308824     0.16100
C112        C  0.37182238  0.73657815  0.44199052     0.25500
C113        C  0.37169313  0.68416707  0.44408068    -0.40900
C114        C  0.37312225  0.65722755  0.40393783     0.32500
C115        C  0.38499293  0.75965584  0.32770915     0.01100
F116        F  0.37664718  0.81115392  0.40391834    -0.13200
F117        F  0.37248684  0.60693701  0.40320468    -0.13700
C118        C  0.36550340  0.79109419  0.29020412     0.16100
C119        C  0.37176995  0.81420592  0.25406545     0.25500
C120        C  0.39787076  0.80697441  0.25530948    -0.40800
C121        C  0.41775336  0.77705422  0.29431610     0.32400
C122        C  0.41127443  0.75337918  0.32987633     0.14100
F123        F  0.34007828  0.79821632  0.28764509    -0.13200
F124        F  0.44295801  0.76845736  0.29639337    -0.13700
F125        F  0.35217025  0.84326496  0.21743824    -0.16000
F126        F  0.43063664  0.72387830  0.36635311    -0.14500
F127        F  0.37857374  0.65493349  0.32781000    -0.14500
F128        F  0.36984523  0.76468569  0.47869246    -0.15900
C129        C  0.23578584  0.04422927  0.99270028     0.14100
C130        C  0.23722134  0.99630088  0.97483091     0.01100
C131        C  0.21271614  0.97435338  0.93741920     0.16100
C132        C  0.18721703  0.99951545  0.91870298     0.25500
C133        C  0.18567430  0.04743384  0.93673053    -0.40900
C134        C  0.21031400  0.06961113  0.97374925     0.32500
C135        C  0.26449067  0.97037689  0.99355208     0.01100
F136        F  0.21355926  0.92880452  0.91831104    -0.13200
F137        F  0.20957615  0.11490190  0.99343579    -0.13700
C138        C  0.26954057  0.92436894  0.01888881     0.16100
C139        C  0.29568177  0.90109291  0.03727625     0.25500
C140        C  0.31726870  0.92349815  0.03067977    -0.40800
C141        C  0.31168287  0.96900207  0.00393830     0.32400
C142        C  0.28573518  0.99200996  0.98584977     0.14100
F143        F  0.24937423  0.90258714  0.02698497    -0.13200
F144        F  0.33121747  0.99126267  0.99429359    -0.13700
F145        F  0.30002355  0.85739976  0.06261656    -0.16000
F146        F  0.28119251  0.03541067  0.95990603    -0.14500
F147        F  0.25904273  0.06598967  0.02957841    -0.14500
F148        F  0.16398933  0.97709682  0.88247673    -0.15900
C149        C  0.49871223  0.93816585  0.01791193     0.14100
C150        C  0.50072561  0.99005337  0.02436342     0.01100
C151        C  0.99582938  0.02517156  0.06983675     0.16100
C152        C  0.48607194  0.98247365  0.09101066     0.25500
C153        C  0.48148063  0.93156298  0.08092584    -0.40900
C154        C  0.48847586  0.90938550  0.04502770     0.32500
C155        C  0.01163760  0.02756224  0.00141299     0.01100
F156        F  0.99452465  0.07542868  0.06964181    -0.13200
F157        F  0.48405615  0.86022547  0.03445824    -0.13700
C158        C  0.00001144  0.01503923  0.94870796     0.16100
C159        C  0.00972869  0.03738855  0.91690938     0.25500
C160        C  0.03069664  0.07344893  0.93705761    -0.40800
C161        C  0.04013465  0.08942670  0.98829180     0.32400
C162        C  0.03126867  0.06595950  0.02037950     0.14100
F163        F  0.47492344  0.98349171  0.91392379    -0.13200
F164        F  0.05995571  0.12509055  0.00871708    -0.13700
F165        F  0.00046811  0.02063741  0.86800848    -0.16000
F166        F  0.04357610  0.07831710  0.07103058    -0.14500
F167        F  0.50594654  0.91544736  0.98439250    -0.14500
F168        F  0.97709213  0.02447710  0.12874005    -0.15900
C169        C  0.45931357  0.84555917  0.71637903     0.14100
C170        C  0.48507969  0.85100775  0.71616788     0.01100
C171        C  0.99491864  0.81849918  0.68001582     0.16100
C172        C  0.47597385  0.77543592  0.66542978     0.25500
C173        C  0.45052848  0.76871148  0.66680299    -0.40900
C174        C  0.44209108  0.80486297  0.69169549     0.32500
C175        C  0.00952439  0.89161796  0.73892116     0.01100
F176        F  0.01981435  0.81972081  0.67939428    -0.13200
F177        F  0.41791967  0.79956953  0.69449676    -0.13700
C178        C  0.02070455  0.89358950  0.79276800     0.16100
C179        C  0.04066154  0.92941500  0.82142011     0.25500
C180        C  0.04978943  0.96398604  0.79659744    -0.40800
C181        C  0.03926638  0.96030993  0.74270159     0.32400
C182        C  0.01930403  0.92478870  0.71432868     0.14100
F183        F  0.51003360  0.86380351  0.82513890    -0.13200
F184        F  0.04757123  0.99230349  0.71688644    -0.13700
F185        F  0.04983789  0.93185613  0.87298007    -0.16000
F186        F  0.00877068  0.92387247  0.66236166    -0.14500
F187        F  0.45097944  0.87934043  0.74091928    -0.14500
F188        F  0.48482619  0.74203750  0.64135128    -0.15900
C189        C  0.47667409  0.41624739  0.76301443     0.14100
C190        C  0.49113023  0.38903066  0.74171232     0.01100
C191        C  0.48417981  0.39686874  0.68963308     0.16100
C192        C  0.46406422  0.43221404  0.66026502     0.25500
C193        C  0.45007741  0.46009758  0.68200794    -0.40900
C194        C  0.45619729  0.45073478  0.73339569     0.32500
C195        C  0.01045738  0.34970936  0.76693516     0.01100
F196        F  0.98782631  0.36074883  0.65836793    -0.13200
F197        F  0.44291253  0.47625686  0.75566412    -0.13700
C198        C  0.50638707  0.31545337  0.80088628     0.16100
C199        C  0.02205390  0.27568393  0.81977644     0.25500
C200        C  0.04757728  0.27082993  0.81798453    -0.40800
C201        C  0.05487818  0.30760843  0.79244565     0.32400
C202        C  0.03644885  0.34665804  0.76713712     0.14100
F203        F  0.48116194  0.31479607  0.80018444    -0.13200
F204        F  0.07913346  0.30450847  0.78957282    -0.13700
F205        F  0.01427706  0.24193423  0.84487610    -0.16000
F206        F  0.04380716  0.38118734  0.74216330    -0.14500
F207        F  0.48312842  0.41105260  0.81332878    -0.14500
F208        F  0.45954713  0.44117310  0.61149034    -0.15900
C209        C  0.12594363  0.19870343  0.68456277     0.14100
C210        C  0.10210068  0.21296216  0.64013194     0.01100
C211        C  0.07575847  0.20203409  0.63569163     0.16100
C212        C  0.07327833  0.17900262  0.67615021     0.25500
C213        C  0.09721539  0.16676248  0.72210444    -0.40900
C214        C  0.12363273  0.17576856  0.72501062     0.32500
C215        C  0.10494363  0.24092011  0.59948716     0.01100
F216        F  0.05239874  0.21439650  0.59235749    -0.13200
F217        F  0.14749791  0.16429987  0.76780081    -0.13700
C218        C  0.11772188  0.21901305  0.57225916     0.16100
C219        C  0.12086994  0.24572797  0.53450513     0.25500
C220        C  0.11149557  0.29519601  0.52354684    -0.40800
C221        C  0.09915408  0.31730983  0.55171973     0.32400
C222        C  0.09584301  0.29031419  0.58918015     0.14100
F223        F  0.12669218  0.17131155  0.58163156    -0.13200
F224        F  0.08923557  0.36441897  0.54166929    -0.13700
F225        F  0.13303167  0.22301098  0.50856400    -0.16000
F226        F  0.08383203  0.31249082  0.61566044    -0.14500
F227        F  0.15162401  0.20918384  0.68982056    -0.14500
F228        F  0.04741321  0.17037631  0.67079689    -0.15900
C229        C  0.12563277  0.18677712  0.11410797     0.14100
C230        C  0.12022815  0.23794554  0.11059563     0.01100
C231        C  0.11973412  0.26446000  0.06936223     0.16100
C232        C  0.12384851  0.24020537  0.03124469     0.25500
C233        C  0.12806708  0.18819634  0.03293588    -0.40900
C234        C  0.12939741  0.16197439  0.07554895     0.32500
C235        C  0.11478824  0.26392913  0.14957843     0.01100
F236        F  0.11480294  0.31403700  0.06559516    -0.13200
F237        F  0.13334896  0.11216752  0.07919999    -0.13700
C238        C  0.13686982  0.27616817  0.19746358     0.16100
C239        C  0.13182597  0.30009947  0.23478257     0.25500
C240        C  0.10437959  0.31188152  0.22508344    -0.40800
C241        C  0.08233479  0.30103217  0.17597146     0.32400
C242        C  0.08757094  0.27742408  0.13862427     0.14100
F243        F  0.16340754  0.26475700  0.20810084    -0.13200
F244        F  0.05556276  0.31153789  0.16443459    -0.13700
F245        F  0.15392613  0.31104999  0.28068065    -0.16000
F246        F  0.06595335  0.26655094  0.09206382    -0.14500
F247        F  0.12632573  0.16058879  0.15409051    -0.14500
F248        F  0.12270698  0.26793479  0.99178430    -0.15900
C249        C  0.46364860  0.10204215  0.18772880     0.14100
C250        C  0.48672869  0.09482597  0.23606855     0.01100
C251        C  0.49012680  0.04967122  0.26138050     0.16100
C252        C  0.47101375  0.01158157  0.23855833     0.25500
C253        C  0.44814535  0.01770068  0.18926020    -0.40900
C254        C  0.44455173  0.06358323  0.16421545     0.32500
C255        C  0.99652758  0.15078501  0.26167020     0.01100
F256        F  0.51224105  0.04235547  0.30827761    -0.13200
F257        F  0.42302143  0.07077803  0.11662637    -0.13700
C258        C  0.98909319  0.19426479  0.27832147     0.16100
C259        C  0.00819500  0.23270234  0.29922372     0.25500
C260        C  0.03514404  0.22843670  0.30340285    -0.40800
C261        C  0.04292748  0.18368717  0.28857471     0.32400
C262        C  0.02364998  0.14508991  0.26773054     0.14100
F263        F  0.47335602  0.17486814  0.28192708    -0.13200
F264        F  0.06860606  0.17814530  0.29181667    -0.13700
F265        F  0.00009972  0.27445345  0.31473878    -0.16000
F266        F  0.03114258  0.10273365  0.25210433    -0.14500
F267        F  0.95859698  0.15109068  0.15555281    -0.14500
F268        F  0.47599738  0.96766629  0.26372937    -0.15900
C269        C  0.47341491  0.63507445  0.21374537     0.14100
C270        C  0.50013255  0.63636495  0.21697084     0.01100
C271        C  0.01877676  0.70519590  0.21737956     0.16100
C272        C  0.48934225  0.71680312  0.17541119     0.25500
C273        C  0.46280772  0.71647410  0.17357966    -0.40900
C274        C  0.45489752  0.67472009  0.19223193     0.32500
C275        C  0.03190659  0.61879108  0.25005549     0.01100
F276        F  0.04510389  0.71312915  0.22476677    -0.13200
F277        F  0.42986553  0.67331635  0.19225267    -0.13700
C278        C  0.02900510  0.57735349  0.21914990     0.16100
C279        C  0.04476584  0.53476939  0.24032781     0.25500
C280        C  0.06357114  0.53264403  0.29338748    -0.40800
C281        C  0.06819908  0.57604461  0.32323983     0.32400
C282        C  0.05249270  0.61889243  0.30158011     0.14100
F283        F  0.00967380  0.57723949  0.16887340    -0.13200
F284        F  0.08676135  0.57624702  0.37398701    -0.13700
F285        F  0.03970089  0.49440671  0.20947934    -0.16000
F286        F  0.05609392  0.65935059  0.33169205    -0.14500
F287        F  0.46564385  0.59607896  0.23323821    -0.14500
F288        F  0.49762948  0.75577294  0.15671088    -0.15900
C289        C  0.23286750  0.42200879  0.49483957     0.14100
C290        C  0.23497150  0.47226106  0.48440352     0.01100
C291        C  0.21063344  0.49902348  0.45411771     0.16100
C292        C  0.18462029  0.47637919  0.43529768     0.25500
C293        C  0.18230798  0.42627702  0.44642930    -0.40900
C294        C  0.20675044  0.39914051  0.47594015     0.32500
C295        C  0.26250954  0.49654466  0.50343761     0.01100
F296        F  0.21208854  0.54704623  0.44195008    -0.13200
F297        F  0.20535221  0.35113087  0.48812932    -0.13700
C298        C  0.28174934  0.47881913  0.48771260     0.16100
C299        C  0.30741906  0.50226126  0.50408846     0.25500
C300        C  0.31442074  0.54425122  0.53649100    -0.40800
C301        C  0.29501721  0.56229670  0.55193499     0.32400
C302        C  0.26930628  0.53852500  0.53564962     0.14100
F303        F  0.27530629  0.43953599  0.45512078    -0.13200
F304        F  0.30117967  0.60213241  0.58374879    -0.13700
F305        F  0.32510221  0.48467828  0.48677925    -0.16000
F306        F  0.25115065  0.55607618  0.55185150    -0.14500
F307        F  0.25611428  0.39543422  0.52440760    -0.14500
F308        F  0.16162442  0.50351710  0.40548126    -0.15900
C309        C  0.47676322  0.55066494  0.47638734     0.14100
C310        C  0.49708612  0.51412068  0.50103880     0.01100
C311        C  0.00288246  0.52589071  0.53149843     0.16100
C312        C  0.49525724  0.53208402  0.58112691     0.25500
C313        C  0.47371456  0.56645642  0.55531929    -0.40900
C314        C  0.46584680  0.57746911  0.50348113     0.32500
C315        C  0.99650356  0.50520686  0.44308890     0.01100
F316        F  0.02390480  0.49234092  0.55210038    -0.13200
F317        F  0.44571399  0.61158340  0.47759494    -0.13700
C318        C  0.51563041  0.50786643  0.43736120     0.16100
C319        C  0.01311536  0.49778968  0.37916516     0.25500
C320        C  0.01610888  0.44637079  0.38711372    -0.40800
C321        C  0.00678884  0.42405986  0.41943763     0.32400
C322        C  0.99640563  0.45314330  0.44624442     0.14100
F323        F  0.51735128  0.55804028  0.43699440    -0.13200
F324        F  0.00960502  0.37443133  0.42778247    -0.13700
F325        F  0.53334116  0.50452094  0.37718608    -0.16000
F326        F  0.98744982  0.43055174  0.47718357    -0.14500
F327        F  0.46591730  0.55815719  0.42494348    -0.14500
F328        F  0.00337612  0.53285361  0.61281438    -0.15900
Fe329      Fe  0.60285817  0.41260461  0.42364150     1.65800
Fe330      Fe  0.62028700  0.30780465  0.38438051     1.73200
Fe331      Fe  0.55968552  0.36373116  0.31060401     1.54400
O332        O  0.53820961  0.39885311  0.34672790    -0.80200
O333        O  0.62185485  0.32234886  0.31746076    -0.78500
O334        O  0.56819703  0.39463848  0.42954978    -0.82700
O335        O  0.58120597  0.46749036  0.36761575    -0.77600
O336        O  0.54902197  0.29722853  0.32775448    -0.79400
O337        O  0.65525188  0.35430565  0.42305872    -0.82100
C338        C  0.57044996  0.46890452  0.31851248     0.98700
C339        C  0.54422083  0.40359797  0.39406461     1.06100
O340        O  0.59461182  0.36166799  0.37250485    -1.11100
O341        O  0.61890442  0.29009280  0.45072713    -0.73500
O342        O  0.62386773  0.36473205  0.48589780    -0.77000
O343        O  0.56957656  0.43081936  0.29249770    -0.77700
C344        C  0.62215977  0.31778359  0.48803249     0.97600
O345        O  0.63835689  0.43040225  0.42020355    -0.75700
O346        O  0.58807688  0.25566863  0.34640471    -0.80800
C347        C  0.60103604  0.31969850  0.27329036     1.00200
C348        C  0.56184119  0.25697686  0.33148616     1.06100
O349        O  0.57635551  0.32910021  0.26614221    -0.76500
C350        C  0.65833984  0.40141120  0.42784566     1.04400
Fe351      Fe  0.60416135  0.06344524  0.92552371     1.65800
Fe352      Fe  0.62196156  0.16492360  0.88337502     1.73200
Fe353      Fe  0.55778514  0.11788998  0.81768561     1.54400
O354        O  0.56122585  0.04773327  0.79529539    -0.80200
O355        O  0.59184596  0.22221867  0.85011249    -0.78500
O356        O  0.57742029  0.01106546  0.87121136    -0.82700
O357        O  0.57313689  0.08585655  0.94020303    -0.77600
O358        O  0.57285824  0.14600139  0.76776053    -0.79400
O359        O  0.62451567  0.18425927  0.95269173    -0.82100
C360        C  0.54748598  0.08548761  0.90951685     0.98700
C361        C  0.56277798  0.01022211  0.82224907     1.06100
O362        O  0.59478102  0.11484324  0.87476378    -1.11100
O363        O  0.65574170  0.11400308  0.91693600    -0.73500
O364        O  0.63679035  0.04026229  0.91378739    -0.77000
O365        O  0.53828159  0.09078348  0.86102682    -0.77700
C366        C  0.65758981  0.06661955  0.92074560     0.97600
O367        O  0.62976847  0.10976847  0.98718782    -0.75700
O368        O  0.61899655  0.14797688  0.81348959    -0.80800
C369        C  0.56617203  0.22542697  0.83948626     1.00200
C370        C  0.59709396  0.15218572  0.77107876     1.06100
O371        O  0.55221190  0.18748467  0.83789191    -0.76500
C372        C  0.62875494  0.15686771  0.99051046     1.04400
Fe373      Fe  0.89665450  0.56650506  0.55431850     1.65800
Fe374      Fe  0.88003985  0.66851653  0.59972477     1.73200
Fe375      Fe  0.94433190  0.62049870  0.66137654     1.54400
O376        O  0.94150623  0.55038607  0.68392241    -0.80200
O377        O  0.91021748  0.72507777  0.63226268    -0.78500
O378        O  0.92258483  0.51305506  0.60764126    -0.82700
O379        O  0.92724918  0.58702261  0.53791635    -0.77600
O380        O  0.93057348  0.64767769  0.71330095    -0.79400
O381        O  0.87619639  0.68799046  0.52939677    -0.82100
C382        C  0.95298319  0.58948008  0.56749372     0.98700
C383        C  0.93729414  0.51188201  0.65654097     1.06100
O384        O  0.90685904  0.61790150  0.60584469    -1.11100
O385        O  0.84612769  0.61868623  0.56685690    -0.73500
O386        O  0.86457236  0.54467012  0.56718519    -0.77000
O387        O  0.96283204  0.59446697  0.61610867    -0.77700
C388        C  0.84410354  0.57157988  0.56109362     0.97600
O389        O  0.87111061  0.61362002  0.49376558    -0.75700
O390        O  0.88431577  0.65172571  0.67085507    -0.80800
C391        C  0.93562038  0.72810369  0.64142421     1.00200
C392        C  0.90694067  0.65421299  0.71240471     1.06100
O393        O  0.94933916  0.69018875  0.64137766    -0.76500
C394        C  0.87169673  0.66075985  0.49100333     1.04400
Fe395      Fe  0.90376266  0.92017014  0.06524522     1.65800
Fe396      Fe  0.88945670  0.81472791  0.10786882     1.73200
Fe397      Fe  0.94361148  0.88499295  0.18616530     1.54400
O398        O  0.96652179  0.92269569  0.15447332    -0.80200
O399        O  0.88301472  0.82845089  0.17023705    -0.78500
O400        O  0.94205945  0.90855067  0.07073257    -0.82700
O401        O  0.91865185  0.98015605  0.11702901    -0.77600
O402        O  0.96166917  0.82092689  0.18088800    -0.79400
O403        O  0.85196069  0.85467398  0.06276090    -0.82100
C404        C  0.92543806  0.98602779  0.16462557     0.98700
C405        C  0.96396099  0.92314282  0.10889802     1.06100
O406        O  0.91197249  0.87310348  0.11984948    -1.11100
O407        O  0.89507550  0.79555807  0.04600522    -0.73500
O408        O  0.88934174  0.86727448  0.00614737    -0.77000
O409        O  0.92591195  0.94974732  0.19214883    -0.77700
C410        C  0.89276396  0.82049895  0.00792241     0.97600
O411        O  0.86506937  0.93223012  0.05810630    -0.75700
O412        O  0.92499338  0.77022419  0.15182035    -0.80800
C413        C  0.90178995  0.83169236  0.21633853     1.00200
C414        C  0.95135365  0.77780068  0.17235462     1.06100
O415        O  0.92597971  0.84827365  0.22757301    -0.76500
C416        C  0.84655709  0.90096913  0.05292977     1.04400
C417        C  0.90914305  0.72011137  0.93445900     0.14100
C418        C  0.89974256  0.74166687  0.88594223     0.01100
C419        C  0.88811991  0.78947844  0.87724162     0.16100
C420        C  0.88577120  0.81540749  0.91658841     0.25500
C421        C  0.89472647  0.79358783  0.96526846    -0.40900
C422        C  0.90670429  0.74563977  0.97374300     0.32500
C423        C  0.90194553  0.71426000  0.84419983     0.01100
F424        F  0.87936807  0.81127363  0.83066720    -0.13200
F425        F  0.91672202  0.72355337  0.02046071    -0.13700
C426        C  0.87783049  0.69827652  0.80119745     0.16100
C427        C  0.87955092  0.67568314  0.75977323     0.25500
C428        C  0.90558288  0.66921180  0.76021853    -0.40800
C429        C  0.92988521  0.68289715  0.80497202     0.32400
C430        C  0.92801425  0.70507361  0.84655834     0.14100
F431        F  0.85248527  0.70527860  0.79905910    -0.13200
F432        F  0.95546070  0.67700556  0.80787090    -0.13700
F433        F  0.85551372  0.66156087  0.71866909    -0.16000
F434        F  0.95163923  0.71962026  0.88830587    -0.14500
F435        F  0.92049118  0.67398058  0.94366078    -0.14500
F436        F  0.87461468  0.86165376  0.90681790    -0.15900
C437        C  0.87631085  0.68293772  0.36704063     0.14100
C438        C  0.87529745  0.73492290  0.36434869     0.01100
C439        C  0.86938807  0.76174033  0.39918780     0.16100
C440        C  0.86620312  0.73731932  0.43814455     0.25500
C441        C  0.86887294  0.68521381  0.44318998    -0.40900
C442        C  0.87297107  0.65819730  0.40584319     0.32500
C443        C  0.88210327  0.76152104  0.32741052     0.01100
F444        F  0.86814781  0.81198755  0.39711681    -0.13200
F445        F  0.87540445  0.60807886  0.40844316    -0.13700
C446        C  0.86129091  0.78596598  0.28480157     0.16100
C447        C  0.86784652  0.81065559  0.24982812     0.25500
C448        C  0.89551284  0.81201625  0.25723531    -0.40800
C449        C  0.91643849  0.78862830  0.30096250     0.32400
C450        C  0.90973513  0.76343116  0.33548529     0.14100
F451        F  0.83446886  0.78485008  0.27639753    -0.13200
F452        F  0.94320116  0.78787328  0.30900298    -0.13700
F453        F  0.84701749  0.83278485  0.20833728    -0.16000
F454        F  0.93023473  0.74047164  0.37678701    -0.14500
F455        F  0.88136283  0.65619139  0.33288974    -0.14500
F456        F  0.86162931  0.76519824  0.47219337    -0.15900
C457        C  0.73284224  0.04021848  0.94865515     0.14100
C458        C  0.73715731  0.99228587  0.96984996     0.01100
C459        C  0.71504898  0.96858806  0.97310758     0.16100
C460        C  0.68930244  0.99236978  0.95645634     0.25500
C461        C  0.68486552  0.04087142  0.93591914    -0.40900
C462        C  0.70699758  0.06424355  0.93179892     0.32500
C463        C  0.76501434  0.96782754  0.99124009     0.01100
F464        F  0.71874357  0.92286840  0.99445911    -0.13200
F465        F  0.70365564  0.11022315  0.91117547    -0.13700
C466        C  0.78794218  0.98942805  0.03289256     0.16100
C467        C  0.81405313  0.96633379  0.05406256     0.25500
C468        C  0.81790752  0.92084740  0.03431232    -0.40800
C469        C  0.79491022  0.89869815  0.99316419     0.32400
C470        C  0.76868952  0.92202992  0.97176392     0.14100
F471        F  0.78496947  0.03278839  0.05355047    -0.13200
F472        F  0.79813934  0.85590428  0.97197356    -0.13700
F473        F  0.83574002  0.98855557  0.09415184    -0.16000
F474        F  0.74704753  0.90069342  0.93094293    -0.14500
F475        F  0.75369681  0.06374540  0.94412425    -0.14500
F476        F  0.66904345  0.96818867  0.96235241    -0.15900
C477        C  0.00452427  0.94759725  0.03764375     0.14100
C478        C  0.00401998  0.99980373  0.03689218     0.01100
C479        C  0.49485052  0.01170248  0.06209290     0.16100
C480        C  0.98672282  0.99893065  0.10027880     0.25500
C481        C  0.98452461  0.94711542  0.09680430    -0.40900
C482        C  0.99432779  0.92156141  0.06654703     0.32500
C483        C  0.50894452  0.02146077  0.99202699     0.01100
F484        F  0.49563376  0.06163301  0.06853958    -0.13200
F485        F  0.99224567  0.87144324  0.06237573    -0.13700
C486        C  0.49646987  0.01535661  0.93809573     0.16100
C487        C  0.50689132  0.04058883  0.90890488     0.25500
C488        C  0.52931405  0.07346491  0.93306835    -0.40800
C489        C  0.53927688  0.08401943  0.98579598     0.32400
C490        C  0.52997540  0.05709288  0.01520535     0.14100
F491        F  0.98000315  0.97976047  0.92844617    -0.13200
F492        F  0.56008465  0.11734660  0.01005651    -0.13700
F493        F  0.49667522  0.02965148  0.85816937    -0.16000
F494        F  0.54321893  0.06324337  0.06704356    -0.14500
F495        F  0.01395299  0.92175047  0.00895513    -0.14500
F496        F  0.47919604  0.00490577  0.12504547    -0.15900
C497        C  0.96252507  0.85159483  0.70803669     0.14100
C498        C  0.98857369  0.85363441  0.70841826     0.01100
C499        C  0.49297000  0.81600462  0.68980106     0.16100
C500        C  0.97639285  0.78023012  0.65426169     0.25500
C501        C  0.95114879  0.77562433  0.65697308    -0.40900
C502        C  0.94389128  0.81292788  0.68241906     0.32500
C503        C  0.50425714  0.89249327  0.74361989     0.01100
F504        F  0.51781800  0.82014733  0.68933658    -0.13200
F505        F  0.91960216  0.81048405  0.68519604    -0.13700
C506        C  0.51686220  0.89617766  0.79750515     0.16100
C507        C  0.53683513  0.93291095  0.82341248     0.25500
C508        C  0.54463520  0.96684206  0.79584532    -0.40800
C509        C  0.53159017  0.96306144  0.74161414     0.32400
C510        C  0.51168365  0.92643912  0.71601337     0.14100
F511        F  0.01213140  0.86093777  0.81757724    -0.13200
F512        F  0.53773323  0.99525329  0.71288358    -0.13700
F513        F  0.54774587  0.93619513  0.87533136    -0.16000
F514        F  0.49928858  0.92444903  0.66384593    -0.14500
F515        F  0.95540091  0.88650604  0.73335412    -0.14500
F516        F  0.98382505  0.74633022  0.62841989    -0.15900
C517        C  0.98071443  0.42246909  0.76334618     0.14100
C518        C  0.99011628  0.38917404  0.73778288     0.01100
C519        C  0.97965243  0.39327990  0.68423991     0.16100
C520        C  0.96089235  0.43118615  0.65697585     0.25500
C521        C  0.95228975  0.46591642  0.68284640    -0.40900
C522        C  0.96202636  0.46035392  0.73629097     0.32500
C523        C  0.51259020  0.35135638  0.77311753     0.01100
F524        F  0.49698519  0.37048727  0.66704630    -0.13200
F525        F  0.95406228  0.49246753  0.76285148    -0.13700
C526        C  0.00372201  0.31442198  0.79432328     0.16100
C527        C  0.52533250  0.27774604  0.82707824     0.25500
C528        C  0.55056861  0.27318255  0.82433117    -0.40800
C529        C  0.55759339  0.31055443  0.79904828     0.32400
C530        C  0.53894026  0.34961999  0.77429239     0.14100
F531        F  0.97872490  0.31618006  0.79453961    -0.13200
F532        F  0.58165808  0.30776502  0.79546262    -0.13700
F533        F  0.51822501  0.24402982  0.85321036    -0.16000
F534        F  0.54642030  0.38515922  0.75047950    -0.14500
F535        F  0.99047009  0.41942439  0.81503806    -0.14500
F536        F  0.95243459  0.43544070  0.60577697    -0.15900
C537        C  0.63143105  0.19738525  0.69169111     0.14100
C538        C  0.60873136  0.21626115  0.64800220     0.01100
C539        C  0.58171879  0.20962609  0.64219816     0.16100
C540        C  0.57755997  0.18609732  0.68066912     0.25500
C541        C  0.60045854  0.16889591  0.72582575    -0.40900
C542        C  0.62743957  0.17379442  0.73000910     0.32500
C543        C  0.61352276  0.24323352  0.60895095     0.01100
F544        F  0.55937386  0.22640421  0.59940672    -0.13200
F545        F  0.65033287  0.15729005  0.77203536    -0.13700
C546        C  0.62552531  0.21872941  0.58172789     0.16100
C547        C  0.62988850  0.24381867  0.54449895     0.25500
C548        C  0.62240374  0.29414204  0.53381471    -0.40800
C549        C  0.61139079  0.31916381  0.56269832     0.32400
C550        C  0.60688510  0.29379999  0.59977130     0.14100
F551        F  0.63226167  0.16993907  0.59016573    -0.13200
F552        F  0.60361516  0.36745593  0.55330784    -0.13700
F553        F  0.64099926  0.21849436  0.51820706    -0.16000
F554        F  0.59588104  0.31853031  0.62658155    -0.14500
F555        F  0.65773580  0.20361001  0.69826533    -0.14500
F556        F  0.55121541  0.18193075  0.67437528    -0.15900
C557        C  0.62612749  0.17684914  0.11695898     0.14100
C558        C  0.62447713  0.22876934  0.11840247     0.01100
C559        C  0.62748672  0.25680917  0.08123220     0.16100
C560        C  0.63068494  0.23346073  0.04162576     0.25500
C561        C  0.63090815  0.18111192  0.03814952    -0.40900
C562        C  0.62938444  0.15315644  0.07734598     0.32500
C563        C  0.61814234  0.25382718  0.15690611     0.01100
F564        F  0.62587554  0.30702670  0.08175958    -0.13200
F565        F  0.62970298  0.10287664  0.07624072    -0.13700
C566        C  0.63773251  0.28523211  0.19430137     0.16100
C567        C  0.63170769  0.30853345  0.23078985     0.25500
C568        C  0.60578953  0.30131054  0.23018363    -0.40800
C569        C  0.58583879  0.27114871  0.19146400     0.32400
C570        C  0.59204763  0.24746619  0.15536747     0.14100
F571        F  0.66300061  0.29230146  0.19627126    -0.13200
F572        F  0.56081629  0.26251440  0.19000559    -0.13700
F573        F  0.65137807  0.33781019  0.26709564    -0.16000
F574        F  0.57257647  0.21808536  0.11885514    -0.14500
F575        F  0.62398821  0.14905356  0.15343660    -0.14500
F576        F  0.63235915  0.26253550  0.00549216    -0.15900
C577        C  0.95735387  0.11320258  0.18471270     0.14100
C578        C  0.97567657  0.11165940  0.23750726     0.01100
C579        C  0.97372239  0.07323555  0.26744459     0.16100
C580        C  0.95490926  0.03465816  0.24435787     0.25500
C581        C  0.93803105  0.03352255  0.19042377    -0.40900
C582        C  0.93847563  0.07462040  0.16128609     0.32500
C583        C  0.50666885  0.13503993  0.26192362     0.01100
F584        F  0.99083542  0.07218874  0.31888533    -0.13200
F585        F  0.92188540  0.07615520  0.10967915    -0.13700
C586        C  0.49910765  0.17368864  0.28487105     0.16100
C587        C  0.51792944  0.21137031  0.31094287     0.25500
C588        C  0.54464074  0.21165840  0.31366158    -0.40800
C589        C  0.55254102  0.17172564  0.29208463     0.32400
C590        C  0.53365067  0.13353730  0.26652720     0.14100
F591        F  0.96305864  0.19973584  0.27341154    -0.13200
F592        F  0.57791195  0.17082160  0.29337711    -0.13700
F593        F  0.50973395  0.24816114  0.33276241    -0.16000
F594        F  0.54136786  0.09581211  0.24500694    -0.14500
F595        F  0.46004537  0.14589427  0.16290845    -0.14500
F596        F  0.95473750  0.99691355  0.27466881    -0.15900
C597        C  0.98399235  0.65161984  0.22110050     0.14100
C598        C  0.01141077  0.65939630  0.22957797     0.01100
C599        C  0.50778024  0.67717934  0.19696768     0.16100
C600        C  0.99897868  0.74301619  0.19708325     0.25500
C601        C  0.97138028  0.73578006  0.18908954    -0.40900
C602        C  0.96412616  0.68944281  0.20110156     0.32500
C603        C  0.51982909  0.59479928  0.24088270     0.01100
F604        F  0.53313971  0.67859722  0.19823623    -0.13200
F605        F  0.93815683  0.68121178  0.19537911    -0.13700
C606        C  0.51280015  0.54720162  0.21960493     0.16100
C607        C  0.53009230  0.50695825  0.24374954     0.25500
C608        C  0.55489842  0.51337283  0.29008430    -0.40800
C609        C  0.56233670  0.56135416  0.31073045     0.32400
C610        C  0.54504482  0.60188309  0.28599173     0.14100
F611        F  0.48876968  0.53952313  0.17575695    -0.13200
F612        F  0.58606612  0.56886198  0.35511666    -0.13700
F613        F  0.52152261  0.46113898  0.22326539    -0.16000
F614        F  0.55235398  0.64774065  0.30712767    -0.14500
F615        F  0.97666864  0.60749768  0.23333142    -0.14500
F616        F  0.00692862  0.78671912  0.18517769    -0.15900
C617        C  0.73645754  0.42204590  0.49782170     0.14100
C618        C  0.73824884  0.47204895  0.48656518     0.01100
C619        C  0.71404527  0.49753595  0.45328485     0.16100
C620        C  0.68824366  0.47384627  0.43251762     0.25500
C621        C  0.68613074  0.42408081  0.44496934    -0.40900
C622        C  0.71060327  0.39820473  0.47728498     0.32500
C623        C  0.76551338  0.49709471  0.50732369     0.01100
F624        F  0.71548761  0.54530739  0.44037571    -0.13200
F625        F  0.70944363  0.35052504  0.49069551    -0.13700
C626        C  0.78424455  0.48384697  0.48877029     0.16100
C627        C  0.80968999  0.50822997  0.50657717     0.25500
C628        C  0.81691333  0.54662977  0.54329095    -0.40800
C629        C  0.79812405  0.55994317  0.56199269     0.32400
C630        C  0.77256241  0.53520772  0.54413322     0.14100
F631        F  0.77752757  0.44800637  0.45230941    -0.13200
F632        F  0.80481441  0.59578351  0.59840694    -0.13700
F633        F  0.82697226  0.49523365  0.48660613    -0.16000
F634        F  0.75480542  0.54794770  0.56309949    -0.14500
F635        F  0.75973814  0.39667094  0.52962955    -0.14500
F636        F  0.66531156  0.49967303  0.39993478    -0.15900
C637        C  0.96963835  0.57327798  0.45881064     0.14100
C638        C  0.98996946  0.53592983  0.47827148     0.01100
C639        C  0.50706611  0.50636999  0.55421814     0.16100
C640        C  0.99309956  0.54808932  0.56331493     0.25500
C641        C  0.97082889  0.58165115  0.54250766    -0.40900
C642        C  0.96066182  0.59675695  0.49096913     0.32500
C643        C  0.50712061  0.48410391  0.47033354     0.01100
F644        F  0.52756533  0.47283218  0.57971696    -0.13200
F645        F  0.93991556  0.63089401  0.47040961    -0.13700
C646        C  0.00384522  0.52718570  0.40762426     0.16100
C647        C  0.52396820  0.48027519  0.40658483     0.25500
C648        C  0.52542856  0.42845901  0.41003543    -0.40800
C649        C  0.51698993  0.40435514  0.44284844     0.32400
C650        C  0.50722828  0.43190235  0.47188379     0.14100
F651        F  0.00431504  0.57722907  0.40359680    -0.13200
F652        F  0.51942145  0.35437689  0.44843428    -0.13700
F653        F  0.02229902  0.52015995  0.34848169    -0.16000
F654        F  0.49831622  0.40762730  0.50199129    -0.14500
F655        F  0.95661946  0.58402783  0.40784793    -0.14500
F656        F  0.50331055  0.52048713  0.63103608    -0.15900
loop_ 
_geom_bond_atom_site_label_1 
_geom_bond_atom_site_label_2 
_geom_bond_distance 
_geom_bond_site_symmetry_2 
_ccdc_geom_bond_type 
Fe1          O17   2.033       .  S
Fe1           O7   2.107       .  S
Fe1          O14   2.085       .  S
Fe1           O6   2.032       .  S
Fe1          O12   1.934       .  S
Fe2           O5   2.048       .  S
Fe2           O9   2.114       .  S
Fe2          O13   2.047       .  S
Fe2          O18   2.110       .  S
Fe2          O12   1.937       .  S
Fe3          O21   2.096       .  S
Fe3           O8   2.031       .  S
Fe3          O15   2.040       .  S
Fe3           O4   2.109       .  S
Fe3          O12   1.940       .  S
O4           C11   1.273       .  A
O5           C19   1.265       .  A
O6           C11   1.259       .  A
O7           C10   1.279       .  A
O8           C20   1.269       .  A
O9           C22   1.281       .  A
C10          O15   1.268       .  A
C10         C280   1.486       .  S
C11         C320   1.465       .  S
O13          C16   1.264       .  A
O14          C16   1.272       .  A
C16         C220   1.485       .  S
O17          C22   1.267       .  A
O18          C20   1.281       .  A
C19          O21   1.273       .  A
C19         C240   1.492       .  S
C20         C260   1.480       .  S
C22         C293   1.485       .  S
Fe23         O39   2.114       .  S
Fe23         O29   2.007       .  S
Fe23         O36   2.043       .  S
Fe23         O28   2.127       .  S
Fe23         O34   1.926       .  S
Fe24         O27   2.124       .  S
Fe24         O31   2.028       .  S
Fe24         O35   2.124       .  S
Fe24         O40   2.035       .  S
Fe24         O34   1.931       .  S
Fe25         O43   2.030       .  S
Fe25         O30   2.121       .  S
Fe25         O37   2.130       .  S
Fe25         O26   2.026       .  S
Fe25         O34   1.924       .  S
O26          C33   1.264       .  A
O27          C41   1.280       .  A
O28          C33   1.282       .  A
O29          C32   1.258       .  A
O30          C42   1.283       .  A
O31          C44   1.265       .  A
C32          O37   1.280       .  A
C32         C160   1.478       .  S
C33         C180   1.489   1_545  S
O35          C38   1.281       .  A
O36          C38   1.266       .  A
C38         C133   1.489       .  S
O39          C44   1.281       .  A
O40          C42   1.268       .  A
C41          O43   1.263       .  A
C41         C200   1.490       .  S
C42         C213   1.493       .  S
C44         C233   1.495   1_556  S
Fe45         O61   2.105       .  S
Fe45         O51   2.010       .  S
Fe45         O58   2.040       .  S
Fe45         O50   2.123       .  S
Fe45         O56   1.931       .  S
Fe46         O49   2.115       .  S
Fe46         O53   2.049       .  S
Fe46         O57   2.114       .  S
Fe46         O62   2.041       .  S
Fe46         O56   1.934       .  S
Fe47         O65   2.041       .  S
Fe47         O52   2.102       .  S
Fe47         O59   2.119       .  S
Fe47         O48   2.037       .  S
Fe47         O56   1.933       .  S
O48          C55   1.265       .  A
O49          C63   1.278       .  A
O50          C55   1.280       .  A
O51          C54   1.260       .  A
O52          C64   1.279       .  A
O53          C66   1.267       .  A
C54          O59   1.278       .  A
C54         C313   1.476       .  S
C55         C193   1.488       .  S
O57          C60   1.280       .  A
O58          C60   1.268       .  A
C60         C300   1.485       .  S
O61          C66   1.278       .  A
O62          C64   1.268       .  A
C63          O65   1.267       .  A
C63         C173   1.489       .  S
C64         C100   1.486       .  S
C66         C113   1.498       .  S
Fe67         O83   2.036       .  S
Fe67         O73   2.112       .  S
Fe67         O80   2.089   1_554  S
Fe67         O72   2.035       .  S
Fe67         O78   1.932       .  S
Fe68         O71   2.049       .  S
Fe68         O75   2.126       .  S
Fe68         O79   2.043       .  S
Fe68         O84   2.124       .  S
Fe68         O78   1.928       .  S
Fe69         O87   2.108       .  S
Fe69         O74   2.029       .  S
Fe69         O81   2.035       .  S
Fe69         O70   2.120       .  S
Fe69         O78   1.934       .  S
O70          C77   1.277       .  A
O71          C85   1.266       .  A
O72          C77   1.261       .  A
O73          C76   1.278       .  A
O74          C86   1.267       .  A
O75          C88   1.284       .  A
C76          O81   1.265       .  A
C76         C253   1.482   1_565  S
C77         C153   1.469       .  S
O79          C82   1.265   1_554  A
O80          C82   1.273       .  A
C82          C93   1.485       .  S
O83          C88   1.269       .  A
O84          C86   1.284       .  A
C85          O87   1.277       .  A
C85         C120   1.487       .  S
C86         C273   1.485       .  S
C88         C140   1.495       .  S
C89          C90   1.401       .  A
C89          C94   1.398       .  A
C89         F107   1.358       .  S
C90          C95   1.477       .  S
C90          C91   1.405       .  A
C91          C92   1.398       .  A
C91          F96   1.358       .  S
C92          C93   1.410       .  A
C92         F108   1.358       .  S
C93          C94   1.412       .  A
C94          F97   1.358       .  S
C95          C98   1.402       .  A
C95         C102   1.403       .  A
C98          C99   1.399       .  A
C98         F103   1.358       .  S
C99         C100   1.413       .  A
C99         F105   1.358       .  S
C100        C101   1.410       .  A
C101        C102   1.397       .  A
C101        F104   1.358       .  S
C102        F106   1.358       .  S
C109        C110   1.406       .  A
C109        C114   1.404       .  A
C109        F127   1.358       .  S
C110        C115   1.486       .  S
C110        C111   1.401       .  A
C111        C112   1.400       .  A
C111        F116   1.358       .  S
C112        C113   1.416       .  A
C112        F128   1.358       .  S
C113        C114   1.413       .  A
C114        F117   1.358       .  S
C115        C118   1.405       .  A
C115        C122   1.406       .  A
C118        C119   1.403       .  A
C118        F123   1.358       .  S
C119        C120   1.411       .  A
C119        F125   1.358       .  S
C120        C121   1.409       .  A
C121        C122   1.402       .  A
C121        F124   1.358       .  S
C122        F126   1.358       .  S
C129        C130   1.409   1_545  A
C129        C134   1.404       .  A
C129        F147   1.358   1_556  S
C130        C135   1.490       .  S
C130        C131   1.404       .  A
C131        C132   1.403       .  A
C131        F136   1.358       .  S
C132        C133   1.411   1_565  A
C132        F148   1.358       .  S
C133        C134   1.407       .  A
C134        F137   1.358       .  S
C135        C138   1.410   1_556  A
C135        C142   1.402       .  A
C138        C139   1.408       .  A
C138        F143   1.357       .  S
C139        C140   1.410       .  A
C139        F145   1.357       .  S
C140        C141   1.415       .  A
C141        C142   1.397   1_554  A
C141        F144   1.358   1_554  S
C142        F146   1.358   1_565  S
C149        C150   1.410       .  A
C149        C154   1.400       .  A
C149        F167   1.358   1_554  S
C150        C483   1.489   1_564  S
C150        C479   1.409   1_565  A
C151        C478   1.409   1_645  A
C151        C480   1.399   1_545  A
C151        F156   1.358       .  S
C152        C153   1.403       .  A
C152        C479   1.396   1_565  A
C152        F496   1.355   1_565  S
C153        C154   1.404       .  A
C154        F157   1.358       .  S
C155        C478   1.490   1_545  S
C155        C158   1.413   1_554  A
C155        C162   1.404       .  A
C158        C159   1.404       .  A
C158        F491   1.358   1_445  S
C159        C160   1.404       .  A
C159        F165   1.358       .  S
C160        C161   1.411       .  A
C161        C162   1.394   1_556  A
C161        F164   1.359   1_556  S
C162        F166   1.358       .  S
F163        C486   1.358   1_565  S
F168        C480   1.356   1_545  S
C169        C170   1.407       .  A
C169        C174   1.406       .  A
C169        F187   1.358       .  S
C170        C503   1.487       .  S
C170        C499   1.403       .  A
C171        C498   1.402       .  A
C171        C500   1.395       .  A
C171        F176   1.358   1_655  S
C172        C173   1.410       .  A
C172        C499   1.397       .  A
C172        F188   1.358       .  S
C173        C174   1.411       .  A
C174        F177   1.358       .  S
C175        C498   1.484   1_455  S
C175        C178   1.407       .  A
C175        C182   1.402       .  A
C178        C179   1.404       .  A
C178        F511   1.358       .  S
C179        C180   1.410       .  A
C179        F185   1.357       .  S
C180        C181   1.414       .  A
C181        C182   1.397       .  A
C181        F184   1.358       .  S
C182        F186   1.358       .  S
F183        C506   1.358       .  S
C189        C190   1.409       .  A
C189        C194   1.400       .  A
C189        F207   1.358       .  S
C190        C523   1.498       .  S
C190        C191   1.411       .  A
C191        C192   1.404       .  A
C191        F524   1.358       .  S
C192        C193   1.409       .  A
C192        F208   1.358       .  S
C193        C194   1.409       .  A
C194        F197   1.358       .  S
C195        C518   1.486   1_455  S
C195        C202   1.408       .  A
C195        C526   1.402       .  A
F196        C519   1.358       .  S
C198        C523   1.406       .  A
C198        C527   1.396       .  A
C198        F203   1.358       .  S
C199        C200   1.414       .  A
C199        C526   1.397       .  A
C199        F205   1.358       .  S
C200        C201   1.410       .  A
C201        C202   1.405       .  A
C201        F204   1.358       .  S
C202        F206   1.358       .  S
C209        C210   1.400       .  A
C209        C214   1.397       .  A
C209        F227   1.358       .  S
C210        C215   1.481       .  S
C210        C211   1.405       .  A
C211        C212   1.403       .  A
C211        F216   1.358       .  S
C212        C213   1.412       .  A
C212        F228   1.357       .  S
C213        C214   1.416       .  A
C214        F217   1.358       .  S
C215        C218   1.403       .  A
C215        C222   1.404       .  A
C218        C219   1.399       .  A
C218        F223   1.358       .  S
C219        C220   1.411       .  A
C219        F225   1.358       .  S
C220        C221   1.410       .  A
C221        C222   1.400       .  A
C221        F224   1.358       .  S
C222        F226   1.358       .  S
C229        C230   1.405       .  A
C229        C234   1.405       .  A
C229        F247   1.357       .  S
C230        C235   1.479       .  S
C230        C231   1.398       .  A
C231        C232   1.396       .  A
C231        F236   1.358       .  S
C232        C233   1.419       .  A
C232        F248   1.358   1_554  S
C233        C234   1.412       .  A
C234        F237   1.357       .  S
C235        C238   1.400       .  A
C235        C242   1.404       .  A
C238        C239   1.399       .  A
C238        F243   1.358       .  S
C239        C240   1.414       .  A
C239        F245   1.358       .  S
C240        C241   1.413       .  A
C241        C242   1.402       .  A
C241        F244   1.358       .  S
C242        F246   1.358       .  S
C249        C250   1.405       .  A
C249        C254   1.402       .  A
C249        F595   1.358       .  S
C250        C583   1.472       .  S
C250        C251   1.397       .  A
C251        C252   1.393       .  A
C251        F256   1.358       .  S
C252        C253   1.414       .  A
C252        F268   1.358   1_545  S
C253        C254   1.409       .  A
C254        F257   1.358       .  S
C255        C578   1.469       .  S
C255        C258   1.396       .  A
C255        C262   1.404   1_655  A
C258        C259   1.393   1_655  A
C258        F591   1.358       .  S
C259        C260   1.412       .  A
C259        F265   1.358       .  S
C260        C261   1.409       .  A
C261        C262   1.401       .  A
C261        F264   1.358       .  S
C262        F266   1.358       .  S
F263        C586   1.358       .  S
F267        C577   1.358       .  S
C269        C270   1.407       .  A
C269        C274   1.401       .  A
C269        F287   1.358       .  S
C270        C603   1.482       .  S
C270        C599   1.401       .  A
C271        C598   1.398       .  A
C271        C600   1.398   1_455  A
C271        F276   1.358       .  S
C272        C273   1.414       .  A
C272        C599   1.398       .  A
C272        F288   1.358       .  S
C273        C274   1.407       .  A
C274        F277   1.357       .  S
C275        C598   1.475       .  S
C275        C278   1.399       .  A
C275        C282   1.404       .  A
C278        C279   1.395       .  A
C278        F283   1.358       .  S
C279        C280   1.414       .  A
C279        F285   1.358       .  S
C280        C281   1.411       .  A
C281        C282   1.402       .  A
C281        F284   1.358       .  S
C282        F286   1.358       .  S
C289        C290   1.408       .  A
C289        C294   1.404       .  A
C289        F307   1.357       .  S
C290        C295   1.484       .  S
C290        C291   1.402       .  A
C291        C292   1.397       .  A
C291        F296   1.358       .  S
C292        C293   1.412       .  A
C292        F308   1.359       .  S
C293        C294   1.407       .  A
C294        F297   1.357       .  S
C295        C298   1.402       .  A
C295        C302   1.408       .  A
C298        C299   1.398       .  A
C298        F303   1.358       .  S
C299        C300   1.411       .  A
C299        F305   1.358       .  S
C300        C301   1.408       .  A
C301        C302   1.404       .  A
C301        F304   1.358       .  S
C302        F306   1.358       .  S
C309        C310   1.404       .  A
C309        C314   1.389       .  A
C309        F327   1.358       .  S
C310        C643   1.485       .  S
C310        C639   1.411       .  A
C311        C638   1.412   1_455  A
C311        C640   1.400   1_455  A
C311        F316   1.358       .  S
C312        C313   1.406       .  A
C312        C639   1.404       .  A
C312        F656   1.358       .  S
C313        C314   1.409       .  A
C314        F317   1.359       .  S
C315        C638   1.485       .  S
C315        C322   1.409       .  A
C315        C646   1.408   1_655  A
C318        C643   1.407       .  A
C318        C647   1.393       .  A
C318        F323   1.358       .  S
C319        C320   1.405       .  A
C319        C646   1.398       .  A
C319        F653   1.358       .  S
C320        C321   1.402       .  A
C321        C322   1.396   1_455  A
C321        F324   1.358       .  S
C322        F326   1.358       .  S
F325        C647   1.357       .  S
F328        C640   1.358   1_455  S
Fe329       O345   2.032       .  S
Fe329       O335   2.121       .  S
Fe329       O342   2.095       .  S
Fe329       O334   2.025       .  S
Fe329       O340   1.925       .  S
Fe330       O333   2.043       .  S
Fe330       O337   2.115       .  S
Fe330       O341   2.040       .  S
Fe330       O346   2.116       .  S
Fe330       O340   1.926       .  S
Fe331       O349   2.112       .  S
Fe331       O336   2.023       .  S
Fe331       O343   2.032       .  S
Fe331       O332   2.120       .  S
Fe331       O340   1.925       .  S
O332        C339   1.277       .  A
O333        C347   1.267       .  A
O334        C339   1.257       .  A
O335        C338   1.281       .  A
O336        C348   1.265       .  A
O337        C350   1.281       .  A
C338        O343   1.265       .  A
C338        C608   1.483       .  S
C339        C648   1.462       .  S
O341        C344   1.265       .  A
O342        C344   1.275       .  A
C344        C548   1.484       .  S
O345        C350   1.267       .  A
O346        C348   1.280       .  A
C347        O349   1.279       .  A
C347        C568   1.485       .  S
C348        C588   1.480       .  S
C350        C621   1.483       .  S
Fe351       O367   2.106       .  S
Fe351       O357   2.009       .  S
Fe351       O364   2.046       .  S
Fe351       O356   2.121       .  S
Fe351       O362   1.927       .  S
Fe352       O355   2.128       .  S
Fe352       O359   2.038       .  S
Fe352       O363   2.130       .  S
Fe352       O368   2.030       .  S
Fe352       O362   1.931       .  S
Fe353       O371   2.030       .  S
Fe353       O358   2.123       .  S
Fe353       O365   2.127       .  S
Fe353       O354   2.037       .  S
Fe353       O362   1.931       .  S
O354        C361   1.266       .  A
O355        C369   1.280       .  A
O356        C361   1.280       .  A
O357        C360   1.260       .  A
O358        C370   1.283       .  A
O359        C372   1.265       .  A
C360        O365   1.280       .  A
C360        C488   1.478       .  S
C361        C508   1.495   1_545  S
O363        C366   1.284       .  A
O364        C366   1.269       .  A
C366        C461   1.501       .  S
O367        C372   1.277       .  A
O368        C370   1.267       .  A
C369        O371   1.263       .  A
C369        C528   1.491       .  S
C370        C541   1.492       .  S
C372        C561   1.495   1_556  S
Fe373       O389   2.103       .  S
Fe373       O379   2.008       .  S
Fe373       O386   2.032       .  S
Fe373       O378   2.116       .  S
Fe373       O384   1.931       .  S
Fe374       O377   2.117       .  S
Fe374       O381   2.046       .  S
Fe374       O385   2.118       .  S
Fe374       O390   2.042       .  S
Fe374       O384   1.938       .  S
Fe375       O393   2.029       .  S
Fe375       O380   2.108       .  S
Fe375       O387   2.115       .  S
Fe375       O376   2.037       .  S
Fe375       O384   1.930       .  S
O376        C383   1.265       .  A
O377        C391   1.278       .  A
O378        C383   1.279       .  A
O379        C382   1.259       .  A
O380        C392   1.280       .  A
O381        C394   1.268       .  A
C382        O387   1.277       .  A
C382        C641   1.472       .  S
C383        C521   1.489       .  S
O385        C388   1.280       .  A
O386        C388   1.265       .  A
C388        C628   1.480       .  S
O389        C394   1.277       .  A
O390        C392   1.270       .  A
C391        O393   1.263       .  A
C391        C501   1.487       .  S
C392        C428   1.492       .  S
C394        C441   1.495       .  S
Fe395       O411   2.034       .  S
Fe395       O401   2.105       .  S
Fe395       O408   2.094       .  S
Fe395       O400   2.029       .  S
Fe395       O406   1.932       .  S
Fe396       O399   2.046       .  S
Fe396       O403   2.134       .  S
Fe396       O407   2.037       .  S
Fe396       O412   2.125       .  S
Fe396       O406   1.926       .  S
Fe397       O415   2.112       .  S
Fe397       O402   2.023       .  S
Fe397       O409   2.036       .  S
Fe397       O398   2.127       .  S
Fe397       O406   1.935       .  S
O398        C405   1.278       .  A
O399        C413   1.265       .  A
O400        C405   1.261       .  A
O401        C404   1.278       .  A
O402        C414   1.266       .  A
O403        C416   1.285       .  A
C404        O409   1.265       .  A
C404        C581   1.484   1_565  S
C405        C481   1.469       .  S
O407        C410   1.262       .  A
O408        C410   1.273       .  A
C410        C421   1.489   1_554  S
O411        C416   1.267       .  A
O412        C414   1.285       .  A
C413        O415   1.277       .  A
C413        C448   1.490       .  S
C414        C601   1.486       .  S
C416        C468   1.486       .  S
C417        C418   1.399       .  A
C417        C422   1.397       .  A
C417        F435   1.358       .  S
C418        C423   1.478       .  S
C418        C419   1.405       .  A
C419        C420   1.402       .  A
C419        F424   1.358       .  S
C420        C421   1.409       .  A
C420        F436   1.357       .  S
C421        C422   1.416       .  A
C422        F425   1.358   1_556  S
C423        C426   1.400       .  A
C423        C430   1.403       .  A
C426        C427   1.398       .  A
C426        F431   1.358       .  S
C427        C428   1.415       .  A
C427        F433   1.358       .  S
C428        C429   1.413       .  A
C429        C430   1.401       .  A
C429        F432   1.357       .  S
C430        F434   1.358       .  S
C437        C438   1.405       .  A
C437        C442   1.404       .  A
C437        F455   1.358       .  S
C438        C443   1.484       .  S
C438        C439   1.401       .  A
C439        C440   1.400       .  A
C439        F444   1.358       .  S
C440        C441   1.415       .  A
C440        F456   1.358       .  S
C441        C442   1.413       .  A
C442        F445   1.358       .  S
C443        C446   1.403       .  A
C443        C450   1.405       .  A
C446        C447   1.403       .  A
C446        F451   1.358       .  S
C447        C448   1.413       .  A
C447        F453   1.358       .  S
C448        C449   1.410       .  A
C449        C450   1.403       .  A
C449        F452   1.358       .  S
C450        F454   1.358       .  S
C457        C458   1.409   1_545  A
C457        C462   1.408       .  A
C457        F475   1.358       .  S
C458        C463   1.493       .  S
C458        C459   1.402       .  A
C459        C460   1.401       .  A
C459        F464   1.358       .  S
C460        C461   1.416   1_565  A
C460        F476   1.358       .  S
C461        C462   1.411       .  A
C462        F465   1.357       .  S
C463        C466   1.405   1_556  A
C463        C470   1.411       .  A
C466        C467   1.400       .  A
C466        F471   1.358   1_565  S
C467        C468   1.410       .  A
C467        F473   1.359       .  S
C468        C469   1.406   1_554  A
C469        C470   1.408       .  A
C469        F472   1.357       .  S
C470        F474   1.357       .  S
C477        C478   1.409       .  A
C477        C482   1.400   1_455  A
C477        F495   1.358       .  S
C479        F484   1.358       .  S
C480        C481   1.403       .  A
C481        C482   1.404       .  A
C482        F485   1.358       .  S
C483        C486   1.413       .  A
C483        C490   1.405   1_556  A
C486        C487   1.404       .  A
C487        C488   1.405       .  A
C487        F493   1.358       .  S
C488        C489   1.410       .  A
C489        C490   1.392   1_556  A
C489        F492   1.359   1_556  S
C490        F494   1.358       .  S
C497        C498   1.408       .  A
C497        C502   1.405       .  A
C497        F515   1.358       .  S
C499        F504   1.358       .  S
C500        C501   1.412       .  A
C500        F516   1.359       .  S
C501        C502   1.409       .  A
C502        F505   1.358       .  S
C503        C506   1.405       .  A
C503        C510   1.403       .  A
C506        C507   1.405       .  A
C507        C508   1.413       .  A
C507        F513   1.358       .  S
C508        C509   1.414       .  A
C509        C510   1.399       .  A
C509        F512   1.358       .  S
C510        F514   1.358       .  S
C517        C518   1.404       .  A
C517        C522   1.399       .  A
C517        F535   1.358       .  S
C518        C519   1.406       .  A
C519        C520   1.403       .  A
C520        C521   1.410       .  A
C520        F536   1.358       .  S
C521        C522   1.412       .  A
C522        F525   1.358       .  S
C523        C530   1.413       .  A
C526        F531   1.358   1_455  S
C527        C528   1.411       .  A
C527        F533   1.359       .  S
C528        C529   1.408       .  A
C529        C530   1.408       .  A
C529        F532   1.358       .  S
C530        F534   1.358       .  S
C537        C538   1.400       .  A
C537        C542   1.395       .  A
C537        F555   1.358       .  S
C538        C543   1.481       .  S
C538        C539   1.406       .  A
C539        C540   1.403       .  A
C539        F544   1.358       .  S
C540        C541   1.411       .  A
C540        F556   1.357       .  S
C541        C542   1.416       .  A
C542        F545   1.358       .  S
C543        C546   1.403       .  A
C543        C550   1.405       .  A
C546        C547   1.398       .  A
C546        F551   1.358       .  S
C547        C548   1.410       .  A
C547        F553   1.358       .  S
C548        C549   1.410       .  A
C549        C550   1.401       .  A
C549        F552   1.358       .  S
C550        F554   1.358       .  S
C557        C558   1.405       .  A
C557        C562   1.404       .  A
C557        F575   1.358       .  S
C558        C563   1.483       .  S
C558        C559   1.400       .  A
C559        C560   1.398       .  A
C559        F564   1.358       .  S
C560        C561   1.416       .  A
C560        F576   1.358       .  S
C561        C562   1.412       .  A
C562        F565   1.357       .  S
C563        C566   1.404       .  A
C563        C570   1.405       .  A
C566        C567   1.400       .  A
C566        F571   1.358       .  S
C567        C568   1.411       .  A
C567        F573   1.358       .  S
C568        C569   1.409       .  A
C569        C570   1.401       .  A
C569        F572   1.358       .  S
C570        F574   1.358       .  S
C577        C578   1.402       .  A
C577        C582   1.398       .  A
C578        C579   1.397       .  A
C579        C580   1.395       .  A
C579        F584   1.358       .  S
C580        C581   1.415       .  A
C580        F596   1.358   1_545  S
C581        C582   1.410       .  A
C582        F585   1.358       .  S
C583        C586   1.397       .  A
C583        C590   1.405       .  A
C586        C587   1.393       .  A
C587        C588   1.412       .  A
C587        F593   1.358       .  S
C588        C589   1.409       .  A
C589        C590   1.402       .  A
C589        F592   1.358       .  S
C590        F594   1.358       .  S
C597        C598   1.405   1_655  A
C597        C602   1.399       .  A
C597        F615   1.358       .  S
C599        F604   1.358       .  S
C600        C601   1.417       .  A
C600        F616   1.359   1_655  S
C601        C602   1.407       .  A
C602        F605   1.357       .  S
C603        C606   1.400       .  A
C603        C610   1.408       .  A
C606        C607   1.395       .  A
C606        F611   1.358       .  S
C607        C608   1.413       .  A
C607        F613   1.358       .  S
C608        C609   1.406       .  A
C609        C610   1.404       .  A
C609        F612   1.357       .  S
C610        F614   1.357       .  S
C617        C618   1.405       .  A
C617        C622   1.401       .  A
C617        F635   1.357       .  S
C618        C623   1.478       .  S
C618        C619   1.401       .  A
C619        C620   1.397       .  A
C619        F624   1.358       .  S
C620        C621   1.412       .  A
C620        F636   1.359       .  S
C621        C622   1.408       .  A
C622        F625   1.358       .  S
C623        C626   1.400       .  A
C623        C630   1.407       .  A
C626        C627   1.395       .  A
C626        F631   1.358       .  S
C627        C628   1.411       .  A
C627        F633   1.358       .  S
C628        C629   1.406       .  A
C629        C630   1.405       .  A
C629        F632   1.357       .  S
C630        F634   1.358       .  S
C637        C638   1.404       .  A
C637        C642   1.394       .  A
C637        F655   1.358       .  S
C639        F644   1.358       .  S
C640        C641   1.402       .  A
C641        C642   1.410       .  A
C642        F645   1.359       .  S
C643        C650   1.410       .  A
C646        F651   1.358       .  S
C647        C648   1.402       .  A
C648        C649   1.405       .  A
C649        C650   1.401       .  A
C649        F652   1.358       .  S
C650        F654   1.358       .  S
