geometry optimzed in LAMMPS
_audit_creation_date              2020-12-01 
_audit_creation_method            'lammps2cif' 
_symmetry_space_group_name_H-M    'P1' 
_symmetry_Int_Tables_number       1 
_symmetry_cell_setting            triclinic 
loop_ 
_symmetry_equiv_pos_as_xyz 
  x,y,z 
_cell_length_a                    45.08740012 
_cell_length_b                    30.883591151458045 
_cell_length_c                    40.23399870409329 
_cell_angle_alpha                 88.85338678882296 
_cell_angle_beta                  89.7338224004468 
_cell_angle_gamma                 89.4320145535423 
loop_ 
_atom_site_label 
_atom_site_type_symbol 
_atom_site_fract_x 
_atom_site_fract_y 
_atom_site_fract_z 
_atom_site_charge 
Fe1        Fe  0.15233600  0.88423606  0.35576122     1.65800
Fe2        Fe  0.20652768  0.88834998  0.41209269     1.73200
Fe3        Fe  0.17849680  0.98021659  0.37842633     1.54400
O4          O  0.16462205  0.98162817  0.32984905    -0.81900
O5          O  0.19128804  0.92599258  0.44923658    -0.80200
O6          O  0.16769823  0.91415293  0.31138855    -0.84400
O7          O  0.11955300  0.93086914  0.35893487    -0.79200
O8          O  0.22207026  0.98072832  0.36301455    -0.81000
O9          O  0.17564536  0.84341452  0.42900181    -0.83800
C10         C  0.11447040  0.96299351  0.37736298     0.97000
C11         C  0.16686428  0.95529813  0.30624570     1.04400
O12         O  0.17982564  0.91725541  0.38129920    -1.12700
O13         O  0.22276792  0.84840158  0.37662079    -0.75200
O14         O  0.18196769  0.83211225  0.34893423    -0.78700
O15         O  0.13497651  0.98071299  0.39379821    -0.79400
C16         C  0.20909157  0.82510180  0.35635496     0.95900
O17         O  0.13487228  0.85844164  0.40046496    -0.77300
O18         O  0.24028798  0.93126341  0.39893196    -0.82500
C19         C  0.19967519  0.96454285  0.44967263     0.98500
C20         C  0.24381066  0.96284585  0.37827663     1.04400
O21         O  0.19415792  0.99030295  0.42568008    -0.78200
C22         C  0.14751512  0.84569320  0.42734131     1.02700
Fe23       Fe  0.33194056  0.61025340  0.35802825     1.65800
Fe24       Fe  0.27551105  0.60531391  0.41296888     1.73200
Fe25       Fe  0.30175796  0.51378395  0.37880779     1.54400
O26         O  0.31360567  0.51504630  0.32981141    -0.81900
O27         O  0.28973568  0.56518041  0.45021391    -0.80200
O28         O  0.31974315  0.58324111  0.31193713    -0.84400
O29         O  0.36414100  0.56285705  0.36248178    -0.79200
O30         O  0.25778534  0.51599082  0.36538720    -0.81000
O31         O  0.30601134  0.64937663  0.43018348    -0.83800
C32         C  0.36721194  0.52711211  0.37829677     0.97000
C33         C  0.31668020  0.54264189  0.30645421     1.04400
O34         O  0.30246998  0.57670575  0.38228301    -1.12700
O35         O  0.26059746  0.64711521  0.37686869    -0.75200
O36         O  0.30261169  0.66290085  0.34998167    -0.78700
O37         O  0.34549011  0.50819513  0.39232054    -0.79400
C38         C  0.27537632  0.67061914  0.35681773     0.95900
O39         O  0.34767519  0.63405380  0.40368776    -0.77300
O40         O  0.24078978  0.56467820  0.40124661    -0.82500
C41         C  0.28227045  0.52604440  0.45072290     0.98500
C42         C  0.23666624  0.53389067  0.38128623     1.04400
O43         O  0.28784923  0.50172646  0.42660190    -0.78200
C44         C  0.33411792  0.64750118  0.42956542     1.02700
Fe45       Fe  0.16074091  0.10916031  0.12315918     1.65800
Fe46       Fe  0.21587429  0.10055268  0.06677425     1.73200
Fe47       Fe  0.19278001  0.01206384  0.10939942     1.54400
O48         O  0.18199826  0.01702779  0.15799266    -0.81900
O49         O  0.20115915  0.05736624  0.03329370    -0.80200
O50         O  0.17363649  0.08588977  0.17109025    -0.84400
O51         O  0.12925163  0.06068364  0.12303256    -0.79200
O52         O  0.23665623  0.01770895  0.12143290    -0.81000
O53         O  0.18457015  0.14393044  0.04800924    -0.83800
C54         C  0.12707695  0.02300904  0.11102734     0.97000
C55         C  0.17759436  0.04579289  0.17930156     1.04400
O56         O  0.19029943  0.07424896  0.10073140    -1.12700
O57         O  0.23138965  0.14480075  0.09909810    -0.75200
O58         O  0.19033537  0.16253489  0.12708502    -0.78700
O59         O  0.14907489  0.00339479  0.09825556    -0.79400
C60         C  0.21766638  0.16886480  0.11926969     0.95900
O61         O  0.14368345  0.12792974  0.07584139    -0.77300
O62         O  0.25138626  0.06072715  0.07971480    -0.82500
C63         C  0.20914554  0.01822917  0.03586732     0.98500
C64         C  0.25686092  0.03273711  0.10252894     1.04400
O65         O  0.20552376  0.99642730  0.06238562    -0.78200
C66         C  0.15673524  0.13963522  0.04892767     1.02700
Fe67       Fe  0.34183390  0.38231627  0.13195722     1.65800
Fe68       Fe  0.28800592  0.39153401  0.07551921     1.73200
Fe69       Fe  0.31679286  0.48111506  0.10848027     1.54400
O70         O  0.33012758  0.48000349  0.15711566    -0.81900
O71         O  0.30467812  0.43083749  0.03964827    -0.80200
O72         O  0.32710245  0.41195998  0.17651170    -0.84400
O73         O  0.37530571  0.42794123  0.12866107    -0.79200
O74         O  0.27312905  0.48294423  0.12371119    -0.81000
O75         O  0.31807711  0.34549358  0.05944815    -0.83800
C76         C  0.38057774  0.46122926  0.11050210     0.97000
C77         C  0.32856703  0.45306420  0.18114259     1.04400
O78         O  0.31470545  0.41795871  0.10640815    -1.12700
O79         O  0.27064526  0.35061756  0.11011680    -0.75200
O80         O  0.31100709  0.33037484  0.13816277    -0.78700
O81         O  0.36031915  0.48022022  0.09362020    -0.79400
C82         C  0.28389651  0.32469035  0.12971775     0.95900
O83         O  0.35934444  0.35770938  0.08708669    -0.77300
O84         O  0.25479700  0.43476300  0.08877785    -0.82500
C85         C  0.29398242  0.46838563  0.03913103     0.98500
C86         C  0.25133067  0.46526739  0.10940771     1.04400
O87         O  0.30201057  0.49468156  0.06076530    -0.78200
C88         C  0.34617555  0.34633815  0.06058919     1.02700
Fe89       Fe  0.41167761  0.88150110  0.12855792     1.65800
Fe90       Fe  0.47220086  0.88651923  0.07861393     1.73200
Fe91       Fe  0.44368090  0.97945970  0.10947329     1.54400
O92         O  0.39841606  0.98792929  0.10552363    -0.81900
O93         O  0.00589069  0.91103404  0.10583549    -0.80200
O94         O  0.37850438  0.92304094  0.11431426    -0.84400
O95         O  0.41585160  0.91607508  0.17376743    -0.79200
O96         O  0.44713356  0.99136346  0.05943894    -0.81000
O97         O  0.47525994  0.83143450  0.10705485    -0.83800
C98         C  0.42725369  0.95273199  0.18094921     0.97000
C99         C  0.37620912  0.96319475  0.10791318     1.04400
O100        O  0.44241577  0.91593903  0.10595117    -1.12700
O101        O  0.43996569  0.86200751  0.04892704    -0.75200
O102        O  0.40238545  0.84795558  0.08361317    -0.78700
O103        O  0.44035788  0.97658163  0.15977472    -0.79400
C104        C  0.41386864  0.84842320  0.05421729     0.95900
O105        O  0.44157354  0.83427721  0.14715146    -0.77300
O106        O  0.47629098  0.93632068  0.04568177    -0.82500
C107        C  0.01014596  0.95029526  0.11311025     0.98500
C108        C  0.46543008  0.97344484  0.04021487     1.04400
O109        O  0.98944993  0.97862725  0.11349048    -0.78200
C110        C  0.46470166  0.81766680  0.13423975     1.02700
Fe111      Fe  0.09241619  0.61239568  0.13436868     1.65800
Fe112      Fe  0.03537341  0.60558849  0.07977667     1.73200
Fe113      Fe  0.06484777  0.51385324  0.11308802     1.54400
O114        O  0.11011190  0.50843770  0.11607755    -0.81900
O115        O  0.50068652  0.57581039  0.10314277    -0.80200
O116        O  0.12847561  0.57402721  0.12313281    -0.84400
O117        O  0.08555614  0.57494946  0.17892787    -0.79200
O118        O  0.06857250  0.50597642  0.06292793    -0.81000
O119        O  0.02744411  0.65763452  0.10881628    -0.83800
C120        C  0.07301066  0.53844591  0.18538106     0.97000
C121        C  0.13177463  0.53382935  0.11858701     1.04400
O122        O  0.06431376  0.57733540  0.10948789    -1.12700
O123        O  0.06813048  0.63536390  0.05342968    -0.75200
O124        O  0.10362242  0.64885889  0.09016764    -0.78700
O125        O  0.06149985  0.51544596  0.16328387    -0.79400
C126        C  0.09340032  0.65005484  0.06028260     0.95900
O127        O  0.05960244  0.65645602  0.15031026    -0.77300
O128        O  0.03699410  0.55744067  0.04616894    -0.82500
C129        C  0.49742303  0.53556204  0.10810525     0.98500
C130        C  0.05084363  0.52228368  0.04188612     1.04400
O131        O  0.51910012  0.50908382  0.11025553    -0.78200
C132        C  0.03616482  0.67108035  0.13641927     1.02700
Fe133      Fe  0.40085967  0.11451838  0.35670447     1.65800
Fe134      Fe  0.45751125  0.10246716  0.41144216     1.73200
Fe135      Fe  0.42922832  0.01419127  0.37671403     1.54400
O136        O  0.38407307  0.00930632  0.37189245    -0.81900
O137        O  0.99247063  0.07535200  0.38708597    -0.80200
O138        O  0.36493263  0.07572906  0.36788075    -0.84400
O139        O  0.40831740  0.07965674  0.31185629    -0.79200
O140        O  0.42364659  0.00299055  0.42659523    -0.81000
O141        O  0.46472028  0.15701232  0.38401953    -0.83800
C142        C  0.42230770  0.04435615  0.30488603     0.97000
C143        C  0.36208481  0.03504143  0.37090768     1.04400
O144        O  0.42904106  0.07725597  0.38118076    -1.12700
O145        O  0.42447541  0.13013794  0.43778279    -0.75200
O146        O  0.38956983  0.14894027  0.40104717    -0.78700
O147        O  0.43440353  0.02006053  0.32672868    -0.79400
C148        C  0.39973794  0.14751063  0.43096454     0.95900
O149        O  0.43360085  0.15916585  0.34150898    -0.77300
O150        O  0.45578599  0.05146242  0.44385979    -0.82500
C151        C  0.99632523  0.03529816  0.38282684     0.98500
C152        C  0.44080724  0.01746831  0.44829216     1.04400
O153        O  0.97494648  0.00892002  0.38109892    -0.78200
C154        C  0.45635407  0.17287278  0.35654875     1.02700
Fe155      Fe  0.08327380  0.37712358  0.36802168     1.65800
Fe156      Fe  0.02109459  0.38808613  0.41422861     1.73200
Fe157      Fe  0.05188787  0.47636780  0.37940127     1.54400
O158        O  0.09750267  0.48269197  0.37789192    -0.81900
O159        O  0.48903645  0.41251544  0.38338711    -0.80200
O160        O  0.11684214  0.41675064  0.38262900    -0.84400
O161        O  0.08098021  0.41134741  0.32125637    -0.79200
O162        O  0.05244627  0.48873328  0.42906555    -0.81000
O163        O  0.01856846  0.33116933  0.38958758    -0.83800
C164        C  0.06677287  0.44539925  0.31092306     0.97000
C165        C  0.11970983  0.45741805  0.38092741     1.04400
O166        O  0.05231076  0.41365863  0.38685951    -1.12700
O167        O  0.05163560  0.36423849  0.44689121    -0.75200
O168        O  0.08966246  0.34411728  0.41490458    -0.78700
O169        O  0.05101852  0.46865309  0.32971809    -0.79400
C170        C  0.07729165  0.34788807  0.44368340     0.95900
O171        O  0.05301332  0.33198267  0.35009590    -0.77300
O172        O  0.01766855  0.44113629  0.44301930    -0.82500
C173        C  0.48494588  0.45274663  0.37838409     0.98500
C174        C  0.03203244  0.47529398  0.44808666     1.04400
O175        O  0.50598266  0.47979833  0.37932435    -0.78200
C176        C  0.02955485  0.31655516  0.36316451     1.02700
Fe177      Fe  0.33094821  0.11593778  0.62464990     1.65800
Fe178      Fe  0.27094921  0.10859407  0.57403282     1.73200
Fe179      Fe  0.29918367  0.01816917  0.61052391     1.54400
O180        O  0.34487778  0.00990792  0.61276453    -0.81900
O181        O  0.23592480  0.08339233  0.60026773    -0.80200
O182        O  0.36547256  0.07503276  0.61165294    -0.84400
O183        O  0.32757510  0.07994746  0.67056211    -0.79200
O184        O  0.30093172  0.00538743  0.56092735    -0.81000
O185        O  0.26653886  0.16394957  0.60062146    -0.83800
C186        C  0.31405128  0.04507605  0.67963438     0.97000
C187        C  0.36751067  0.03402328  0.61162870     1.04400
O188        O  0.30046706  0.08102789  0.60337236    -1.12700
O189        O  0.30335483  0.13391090  0.54449088    -0.75200
O190        O  0.33967937  0.15072124  0.57917763    -0.78700
O191        O  0.29699239  0.02543244  0.66028445    -0.79400
C192        C  0.32856334  0.14983691  0.54978269     0.95900
O193        O  0.29981272  0.16249921  0.64121492    -0.77300
O194        O  0.26982241  0.05726995  0.54343549    -0.82500
C195        C  0.23184503  0.04355084  0.60662950     0.98500
C196        C  0.28260590  0.02104512  0.54020513     1.04400
O197        O  0.25307400  0.01630613  0.60936674    -0.78200
C198        C  0.27684723  0.17879943  0.62714517     1.02700
Fe199      Fe  0.14994711  0.39031427  0.63637546     1.65800
Fe200      Fe  0.20197461  0.40065910  0.57722135     1.73200
Fe201      Fe  0.17402488  0.48943179  0.61343751     1.54400
O202        O  0.13002247  0.48981347  0.60192829    -0.81900
O203        O  0.23466833  0.44522608  0.58567787    -0.80200
O204        O  0.11503843  0.43518407  0.63469221    -0.84400
O205        O  0.16526280  0.41849790  0.68065263    -0.79200
O206        O  0.18486776  0.50223123  0.56476662    -0.81000
O207        O  0.22169151  0.36108089  0.61189581    -0.83800
C208        C  0.16513917  0.45928683  0.68636903     0.97000
C209        C  0.10968072  0.46879402  0.61673310     1.04400
O210        O  0.17599168  0.42660973  0.60994332    -1.12700
O211        O  0.17317279  0.35247821  0.56430798    -0.75200
O212        O  0.13201517  0.36530464  0.59229277    -0.78700
O213        O  0.16384340  0.48761175  0.66323948    -0.79400
C214        C  0.14518567  0.35242441  0.56601802     0.95900
O215        O  0.18216460  0.33955528  0.64100390    -0.77300
O216        O  0.18310303  0.43882755  0.54107792    -0.82500
C217        C  0.23935297  0.47523153  0.60612765     0.98500
C218        C  0.18936117  0.47849466  0.54001987     1.04400
O219        O  0.21877644  0.49114192  0.62414911    -0.78200
C220        C  0.20935615  0.33483704  0.63205655     1.02700
Fe221      Fe  0.34579504  0.88066112  0.85642119     1.65800
Fe222      Fe  0.29145692  0.89086114  0.91299053     1.73200
Fe223      Fe  0.31943583  0.97958920  0.87491150     1.54400
O224        O  0.36325228  0.98047353  0.88879312    -0.81900
O225        O  0.25808132  0.93438255  0.90023922    -0.80200
O226        O  0.37988636  0.92581973  0.85821429    -0.84400
O227        O  0.33169617  0.90854049  0.81062346    -0.79200
O228        O  0.30578234  0.99303658  0.92209073    -0.81000
O229        O  0.27403088  0.85009173  0.87904850    -0.83800
C230        C  0.33164830  0.94932617  0.80381340     0.97000
C231        C  0.38428389  0.95996086  0.87473649     1.04400
O232        O  0.31827691  0.91675873  0.88056476    -1.12700
O233        O  0.32098818  0.84414252  0.93038070    -0.75200
O234        O  0.36236119  0.85605795  0.90220513    -0.78700
O235        O  0.33219687  0.97746132  0.82615973    -0.79400
C236        C  0.34906470  0.84434580  0.92901293     0.95900
O237        O  0.31458492  0.83008990  0.85128250    -0.77300
O238        O  0.30792923  0.93001410  0.94838448    -0.82500
C239        C  0.25377261  0.96359420  0.87800207     0.98500
C240        C  0.30105299  0.96958771  0.94751715     1.04400
O241        O  0.27502396  0.98058949  0.86131783    -0.78200
C242        C  0.28726674  0.82496979  0.85926514     1.02700
Fe243      Fe  0.16247117  0.61491382  0.86620893     1.65800
Fe244      Fe  0.22187389  0.60356069  0.91652367     1.73200
Fe245      Fe  0.19301875  0.51542075  0.88278266     1.54400
O246        O  0.14764953  0.50968768  0.87726858    -0.81900
O247        O  0.25586369  0.57780756  0.88928176    -0.80200
O248        O  0.12809428  0.57553195  0.88030042    -0.84400
O249        O  0.16733217  0.57934907  0.82095033    -0.79200
O250        O  0.18822965  0.50350359  0.93269644    -0.81000
O251        O  0.22668056  0.65950311  0.88938954    -0.83800
C252        C  0.18199318  0.54506823  0.81246474     0.97000
C253        C  0.12535313  0.53493747  0.87869862     1.04400
O254        O  0.19226099  0.57826330  0.88813328    -1.12700
O255        O  0.18979657  0.62951816  0.94584984    -0.75200
O256        O  0.15336253  0.64910791  0.91136107    -0.78700
O257        O  0.19765350  0.52333275  0.83296723    -0.79400
C258        C  0.16463026  0.64673676  0.94077721     0.95900
O259        O  0.19356392  0.66046148  0.84875476    -0.77300
O260        O  0.22202850  0.55106321  0.94793785    -0.82500
C261        C  0.26014854  0.53750925  0.88671269     0.98500
C262        C  0.20678820  0.51736817  0.95325775     1.04400
O263        O  0.23906224  0.51047665  0.88731041    -0.78200
C264        C  0.21651379  0.67543750  0.86262215     1.02700
Fe265      Fe  0.08232726  0.88147191  0.62582053     1.65800
Fe266      Fe  0.02419049  0.88574138  0.57361139     1.73200
Fe267      Fe  0.05164081  0.97820071  0.60340086     1.54400
O268        O  0.06678982  0.97842313  0.65082085    -0.81900
O269        O  0.03578434  0.92570510  0.53567884    -0.80200
O270        O  0.07127107  0.91110835  0.67113838    -0.84400
O271        O  0.11412660  0.92903547  0.61865119    -0.79200
O272        O  0.50831158  0.97787679  0.62070039    -0.81000
O273        O  0.05515840  0.84285550  0.55435562    -0.83800
C274        C  0.11673943  0.96396800  0.60153233     0.97000
C275        C  0.07092949  0.95233385  0.67491573     1.04400
O276        O  0.05209848  0.91479756  0.60198750    -1.12700
O277        O  0.01141396  0.84372474  0.61000909    -0.75200
O278        O  0.05334402  0.82863783  0.63704645    -0.78700
O279        O  0.09486644  0.98155870  0.58635881    -0.79400
C280        C  0.02597393  0.82121592  0.63088560     0.95900
O281        O  0.09723191  0.85590206  0.58041103    -0.77300
O282        O  0.48973114  0.92638700  0.58895147    -0.82500
C283        C  0.02520446  0.96335370  0.53594239     0.98500
C284        C  0.48629139  0.95860663  0.60805911     1.04400
O285        O  0.03435471  0.98988086  0.55680712    -0.78200
C286        C  0.08331021  0.84414220  0.55457867     1.02700
Fe287      Fe  0.39856098  0.61571644  0.62993027     1.65800
Fe288      Fe  0.45331459  0.60969284  0.57354823     1.73200
Fe289      Fe  0.42363194  0.51853491  0.60634761     1.54400
O290        O  0.40981331  0.51703537  0.65474154    -0.81900
O291        O  0.43821637  0.57268043  0.53638267    -0.80200
O292        O  0.41267215  0.58336751  0.67444636    -0.84400
O293        O  0.36465091  0.57128232  0.62581696    -0.79200
O294        O  0.96749434  0.51551756  0.62145063    -0.81000
O295        O  0.42356314  0.65676440  0.55750543    -0.83800
C296        C  0.35957029  0.53944483  0.60711286     0.97000
C297        C  0.41235655  0.54196869  0.67898138     1.04400
O298        O  0.42587654  0.58155433  0.60409529    -1.12700
O299        O  0.47009435  0.64818198  0.60906008    -0.75200
O300        O  0.42979338  0.66578193  0.63802352    -0.78700
O301        O  0.38015067  0.52026446  0.59126725    -0.79400
C302        C  0.45721750  0.67102669  0.63054336     0.95900
O303        O  0.38192070  0.64308197  0.58469425    -0.77300
O304        O  0.98606320  0.56568836  0.58645163    -0.82500
C305        C  0.44665413  0.53380041  0.53632672     0.98500
C306        C  0.98932123  0.53387853  0.60677149     1.04400
O307        O  0.43838954  0.50787207  0.55895977    -0.78200
C308        C  0.39549324  0.65479488  0.55799941     1.02700
Fe309      Fe  0.09417892  0.10938314  0.84833897     1.65800
Fe310      Fe  0.04081265  0.10533641  0.90627260     1.73200
Fe311      Fe  0.06938739  0.01338041  0.87586955     1.54400
O312        O  0.08165025  0.01245879  0.82702390    -0.81900
O313        O  0.05713912  0.06915613  0.94453989    -0.80200
O314        O  0.07728371  0.07924884  0.80567020    -0.84400
O315        O  0.12757814  0.06261804  0.85045978    -0.79200
O316        O  0.52494110  0.01104178  0.86262961    -0.81000
O317        O  0.07180572  0.15185119  0.91874268    -0.83800
C318        C  0.13362453  0.03191746  0.87093011     0.97000
C319        C  0.07752729  0.03783896  0.80243556     1.04400
O320        O  0.06728817  0.07617368  0.87597739    -1.12700
O321        O  0.02314231  0.14329748  0.86941651    -0.75200
O322        O  0.06415255  0.16271494  0.84254353    -0.78700
O323        O  0.11363923  0.01416558  0.88894390    -0.79400
C324        C  0.03688199  0.16914037  0.85028296     0.95900
O325        O  0.11294137  0.13340019  0.89209006    -0.77300
O326        O  0.50727826  0.06138289  0.89699274    -0.82500
C327        C  0.04960420  0.03024091  0.94701980     0.98500
C328        C  0.50347065  0.02936114  0.87790438     1.04400
O329        O  0.05576866  0.00393128  0.92430151    -0.78200
C330        C  0.09977246  0.14644957  0.91826824     1.02700
Fe331      Fe  0.41278397  0.38654709  0.86156740     1.65800
Fe332      Fe  0.46980312  0.38733082  0.91548749     1.73200
Fe333      Fe  0.44347838  0.48112863  0.88287159     1.54400
O334        O  0.42834948  0.48353893  0.83500898    -0.81900
O335        O  0.45768599  0.42643623  0.95307016    -0.80200
O336        O  0.42411057  0.41705488  0.81572467    -0.84400
O337        O  0.38090532  0.43461579  0.86788967    -0.79200
O338        O  0.98670312  0.47884825  0.86594031    -0.81000
O339        O  0.43863658  0.34462371  0.93470003    -0.83800
C340        C  0.37844080  0.46809230  0.88564982     0.97000
C341        C  0.42436867  0.45836450  0.81109871     1.04400
O342        O  0.44266970  0.41795602  0.88560412    -1.12700
O343        O  0.48338353  0.34570034  0.87977746    -0.75200
O344        O  0.44188944  0.33346219  0.85173817    -0.78700
O345        O  0.40034264  0.48527443  0.90003425    -0.79400
C346        C  0.46894324  0.32427660  0.85893911     0.95900
O347        O  0.39745224  0.36012821  0.90708977    -0.77300
O348        O  0.00431889  0.42756825  0.90076757    -0.82500
C349        C  0.46729938  0.46441464  0.95282999     0.98500
C350        C  0.00820600  0.45936862  0.88058248     1.04400
O351        O  0.46095744  0.49049803  0.92933382    -0.78200
C352        C  0.41053653  0.34689480  0.93354561     1.02700
C353        C  0.02029676  0.20939840  0.83997391    -0.00400
C354        C  0.48910375  0.20779086  0.83880930    -0.12200
C355        C  0.47140280  0.24531157  0.84163664     0.01900
C356        C  0.48492768  0.28604535  0.84480787    -0.00500
C357        C  0.01600643  0.28811457  0.84139490    -0.12200
C358        C  0.03372695  0.25051902  0.83950863     0.01800
H359        H  0.47834723  0.17649754  0.83884540     0.14700
H360        H  0.02681769  0.31919482  0.84340204     0.14700
C361        C  0.06550173  0.25512137  0.84156149     0.36400
C362        C  0.43979581  0.24011421  0.84556461     0.36300
N363        N  0.09094102  0.25893683  0.84351751    -0.44000
N364        N  0.41451439  0.23552795  0.84899201    -0.44000
C365        C  0.41461191  0.52008374  0.71276873    -0.00400
C366        C  0.41328361  0.54485963  0.74144054    -0.12200
C367        C  0.41528397  0.52549409  0.77330014     0.01900
C368        C  0.41999581  0.47978211  0.77744843    -0.00500
C369        C  0.42076855  0.45487542  0.74883708    -0.12200
C370        C  0.41777788  0.47402491  0.71701198     0.01800
H371        H  0.41013048  0.57960001  0.73906357     0.14700
H372        H  0.42377226  0.42010775  0.75125107     0.14700
C373        C  0.41792854  0.44453775  0.68954382     0.36400
C374        C  0.41125799  0.55400417  0.80104058     0.36300
N375        N  0.41779503  0.42055851  0.66779670    -0.44000
N376        N  0.40780861  0.57702031  0.82310960    -0.44000
C377        C  0.07467805  0.97312265  0.70776670    -0.00400
C378        C  0.06591586  0.95126214  0.73677667    -0.12200
C379        C  0.06608475  0.97189550  0.76748775     0.01900
C380        C  0.07467604  0.01623886  0.76971309    -0.00500
C381        C  0.08365650  0.03795958  0.74068094    -0.12200
C382        C  0.08444643  0.01681565  0.71017221     0.01800
H383        H  0.05841896  0.91807653  0.73542838     0.14700
H384        H  0.09129200  0.07107399  0.74200569     0.14700
C385        C  0.09676224  0.04064567  0.68213384     0.36400
C386        C  0.05719701  0.94603086  0.79611881     0.36300
N387        N  0.10677966  0.05991060  0.65988122    -0.44000
N388        N  0.05026640  0.92497823  0.81892682    -0.44000
C389        C  0.47501815  0.70708152  0.64439697    -0.00400
C390        C  0.46142898  0.74750957  0.64905885    -0.12200
C391        C  0.47843559  0.78537485  0.64978417     0.01900
C392        C  0.00976576  0.78330439  0.64552766    -0.00500
C393        C  0.02357750  0.74241794  0.64641183    -0.12200
C394        C  0.00654742  0.70444168  0.64613144     0.01800
H395        H  0.43742835  0.75015077  0.64893249     0.14700
H396        H  0.04750328  0.74005073  0.64401154     0.14700
C397        C  0.02194925  0.66319188  0.64547050     0.36400
C398        C  0.46298565  0.82642298  0.65222643     0.36300
N399        N  0.03419603  0.63008756  0.64499177    -0.44000
N400        N  0.45066887  0.85935790  0.65401727    -0.44000
C401        C  0.29072053  0.52114370  0.88606210    -0.00400
C402        C  0.30228031  0.50224640  0.91533182    -0.12200
C403        C  0.33150369  0.48661285  0.91634797     0.01900
C404        C  0.34906513  0.48866013  0.88738316    -0.00500
C405        C  0.33755289  0.50790035  0.85820115    -0.12200
C406        C  0.30873184  0.52504667  0.85756787     0.01800
H407        H  0.28850669  0.50010205  0.93748151     0.14700
H408        H  0.35117408  0.50956420  0.83591262     0.14700
C409        C  0.29809391  0.54632818  0.82758313     0.36400
C410        C  0.34283056  0.46814563  0.94705676     0.36300
N411        N  0.28965435  0.56368303  0.80363010    -0.44000
N412        N  0.35195150  0.45369137  0.97176773    -0.44000
C413        C  0.03867277  0.47658425  0.87662751    -0.00400
C414        C  0.04200945  0.52041982  0.86753949    -0.12200
C415        C  0.06974135  0.54028196  0.86827711     0.01900
C416        C  0.09519240  0.51599251  0.87799480    -0.00500
C417        C  0.09197573  0.47181407  0.88605412    -0.12200
C418        C  0.06422396  0.45205201  0.88558380     0.01800
H419        H  0.02269424  0.53985470  0.86090541     0.14700
H420        H  0.11121100  0.45254574  0.89324819     0.14700
C421        C  0.06291406  0.40655819  0.89456194     0.36400
C422        C  0.07112019  0.58554071  0.85865806     0.36300
N423        N  0.06194559  0.37017924  0.90193902    -0.44000
N424        N  0.07212045  0.62182720  0.85101152    -0.44000
C425        C  0.41483639  0.97721334  0.87616345    -0.00400
C426        C  0.43386467  0.97153031  0.84875063    -0.12200
C427        C  0.46249382  0.98891821  0.84809964     0.01900
C428        C  0.47291523  0.01182894  0.87569572    -0.00500
C429        C  0.45367662  0.01772103  0.90293886    -0.12200
C430        C  0.42505706  0.00070078  0.90348198     0.01800
H431        H  0.42599787  0.95453570  0.82719113     0.14700
H432        H  0.46116830  0.03520657  0.92441525     0.14700
C433        C  0.40719651  0.00646925  0.93300691     0.36400
C434        C  0.47956912  0.98534826  0.81785145     0.36300
N435        N  0.39302666  0.01089861  0.95678022    -0.44000
N436        N  0.49256931  0.98280887  0.79309739    -0.44000
C437        C  0.16459336  0.01512628  0.87219009    -0.00400
C438        C  0.16944073  0.97165665  0.88144082    -0.12200
C439        C  0.19802524  0.95369171  0.88195948     0.01900
C440        C  0.22284417  0.97959311  0.87342785    -0.00500
C441        C  0.21797407  0.02287388  0.86353582    -0.12200
C442        C  0.18930277  0.04080061  0.86286207     0.01800
H443        H  0.15072904  0.95128120  0.88786468     0.14700
H444        H  0.23672681  0.04329677  0.85739190     0.14700
C445        C  0.18624190  0.08607719  0.85367611     0.36400
C446        C  0.20089489  0.90829166  0.89088649     0.36300
N447        N  0.18385499  0.12233677  0.84624116    -0.44000
N448        N  0.20297200  0.87195258  0.89817915    -0.44000
C449        C  0.26991552  0.78705910  0.84774967    -0.00400
C450        C  0.23874349  0.79116661  0.84562048    -0.12200
C451        C  0.22035244  0.75462603  0.84601672     0.01900
C452        C  0.23312348  0.71291202  0.84854177    -0.00500
C453        C  0.26418418  0.70875481  0.84628306    -0.12200
C454        C  0.28259341  0.74518367  0.84567697     0.01800
H455        H  0.22856475  0.82317251  0.84621218     0.14700
H456        H  0.27424358  0.67666385  0.84790266     0.14700
C457        C  0.31427611  0.73817424  0.84656467     0.36400
C458        C  0.18860686  0.76088527  0.84741171     0.36300
N459        N  0.33966178  0.73233041  0.84721756    -0.44000
N460        N  0.16315848  0.76599187  0.84847153    -0.44000
C461        C  0.26991741  0.49243721  0.60716521    -0.00400
C462        C  0.28895565  0.48407068  0.58006814    -0.12200
C463        C  0.31802974  0.49920822  0.57910470     0.01900
C464        C  0.32877351  0.52343573  0.60575499    -0.00500
C465        C  0.30974404  0.53203214  0.63274911    -0.12200
C466        C  0.28066849  0.51676252  0.63375680     0.01800
H467        H  0.28105740  0.46601689  0.55911670     0.14700
H468        H  0.31776810  0.55005891  0.65365147     0.14700
C469        C  0.26297934  0.52536466  0.66295217     0.36400
C470        C  0.33576049  0.49041409  0.54993717     0.36300
N471        N  0.24890793  0.53223768  0.68642931    -0.44000
N472        N  0.34975747  0.48329303  0.52644655    -0.44000
C473        C  0.01990848  0.51680439  0.61086114    -0.00400
C474        C  0.04004507  0.52479113  0.58467255    -0.12200
C475        C  0.06900863  0.50891363  0.58572481     0.01900
C476        C  0.07875415  0.48467162  0.61378677    -0.00500
C477        C  0.05868325  0.47636869  0.63999723    -0.12200
C478        C  0.02949254  0.49234872  0.63885800     0.01800
H479        H  0.03301278  0.54285556  0.56267312     0.14700
H480        H  0.06597006  0.45810497  0.66178152     0.14700
C481        C  0.01042558  0.48453730  0.66722693     0.36400
C482        C  0.08765494  0.51685612  0.55694306     0.36300
N483        N  0.99526879  0.47834408  0.69008950    -0.44000
N484        N  0.10238604  0.52334951  0.53377267    -0.44000
C485        C  0.16749512  0.47701925  0.72039697    -0.00400
C486        C  0.19392158  0.47082391  0.73796080    -0.12200
C487        C  0.19997224  0.49464830  0.76653382     0.01900
C488        C  0.17915013  0.52583336  0.77856777    -0.00500
C489        C  0.15275149  0.53216826  0.76062577    -0.12200
C490        C  0.14688316  0.50835353  0.73192157     0.01800
H491        H  0.21048496  0.44838841  0.72857786     0.14700
H492        H  0.13612693  0.55474353  0.76962009     0.14700
C493        C  0.11912329  0.51612996  0.71497037     0.36400
C494        C  0.22803860  0.48616485  0.78269244     0.36300
N495        N  0.09676596  0.52246403  0.70164090    -0.44000
N496        N  0.25042170  0.47874329  0.79566646    -0.44000
C497        C  0.45540309  0.97579949  0.61296942    -0.00400
C498        C  0.43227007  0.95702286  0.59488974    -0.12200
C499        C  0.40373017  0.97527154  0.59402684     0.01900
C500        C  0.39748636  0.01345518  0.61152590    -0.00500
C501        C  0.42010851  0.03155959  0.63056455    -0.12200
C502        C  0.44867856  0.01302773  0.63179875     0.01800
H503        H  0.43659533  0.92850211  0.58020852     0.14700
H504        H  0.41534366  0.06026265  0.64490003     0.14700
C505        C  0.47040349  0.03332459  0.65248988     0.36400
C506        C  0.38176851  0.95525991  0.57348631     0.36300
N507        N  0.48769891  0.04968446  0.66916898    -0.44000
N508        N  0.36430982  0.93908522  0.55692260    -0.44000
C509        C  0.20131992  0.02713494  0.60750797    -0.00400
C510        C  0.18327509  0.03486351  0.57961243    -0.12200
C511        C  0.15573080  0.01464429  0.57669909     0.01900
C512        C  0.14589770  0.98591058  0.60211970    -0.00500
C513        C  0.16383940  0.97928347  0.63041603    -0.12200
C514        C  0.19121036  0.99969045  0.63331608     0.01800
H515        H  0.19125857  0.05550681  0.55941477     0.14700
H516        H  0.15625478  0.95857481  0.65077059     0.14700
C517        C  0.20797431  0.99342337  0.66354814     0.36400
C518        C  0.13877208  0.02271791  0.54683417     0.36300
N519        N  0.22114335  0.98881866  0.68799984    -0.44000
N520        N  0.12528910  0.02937656  0.52283281    -0.44000
C521        C  0.31901449  0.02268261  0.71272051    -0.00400
C522        C  0.29951178  0.98878524  0.72206321    -0.12200
C523        C  0.30494865  0.96125865  0.74956492     0.01900
C524        C  0.32993110  0.96770070  0.76947693    -0.00500
C525        C  0.34961089  0.00122026  0.76039612    -0.12200
C526        C  0.34477112  0.02797072  0.73212007     0.01800
H527        H  0.27986833  0.98304335  0.70746287     0.14700
H528        H  0.36871665  0.00699421  0.77594189     0.14700
C529        C  0.36716304  0.05926684  0.72322854     0.36400
C530        C  0.28390071  0.92764149  0.75752595     0.36300
N531        N  0.38538108  0.08399555  0.71619070    -0.44000
N532        N  0.26709266  0.90053650  0.76369651    -0.44000
C533        C  0.22707830  0.29555472  0.64232127    -0.00400
C534        C  0.21290747  0.25535031  0.64471860    -0.12200
C535        C  0.22932883  0.21643745  0.64382522     0.01900
C536        C  0.26063714  0.21704225  0.64055421    -0.00500
C537        C  0.27500997  0.25699377  0.64219844    -0.12200
C538        C  0.25857993  0.29600980  0.64324141     0.01800
H539        H  0.18888685  0.25415654  0.64456612     0.14700
H540        H  0.29896630  0.25802996  0.64000415     0.14700
C541        C  0.27460732  0.33626194  0.64381028     0.36400
C542        C  0.21338058  0.17609177  0.64461562     0.36300
N543        N  0.28728646  0.36864513  0.64432599    -0.44000
N544        N  0.20048670  0.14387038  0.64549998    -0.44000
C545        C  0.02079784  0.50123063  0.47497164    -0.00400
C546        C  0.51612774  0.47831828  0.50475635    -0.12200
C547        C  0.49115257  0.48651531  0.52399848     0.01900
C548        C  0.47156070  0.52102388  0.51481942    -0.00500
C549        C  0.97865131  0.54755649  0.48713067    -0.12200
C550        C  0.00291730  0.53753772  0.46695401     0.01800
H551        H  0.52977283  0.45021237  0.51048090     0.14700
H552        H  0.96454739  0.57473649  0.48043248     0.14700
C553        C  0.00676846  0.56162654  0.43610715     0.36400
C554        C  0.48623214  0.45749425  0.55210448     0.36300
N555        N  0.00970358  0.58079207  0.41131967    -0.44000
N556        N  0.48261260  0.43400368  0.57450510    -0.44000
C557        C  0.09375113  0.33693007  0.47547547    -0.00400
C558        C  0.12473599  0.33224088  0.47471611    -0.12200
C559        C  0.14175257  0.33326030  0.50400998     0.01900
C560        C  0.12794690  0.33992799  0.53553271    -0.00500
C561        C  0.09681322  0.34043605  0.53656702    -0.12200
C562        C  0.07978383  0.33842053  0.50736915     0.01800
H563        H  0.13600959  0.33032232  0.45095057     0.14700
H564        H  0.08558107  0.34426769  0.56019099     0.14700
C565        C  0.04790684  0.33936209  0.51134600     0.36400
C566        C  0.17353535  0.32964599  0.50015275     0.36300
N567        N  0.02240217  0.34015490  0.51476218    -0.44000
N568        N  0.19898978  0.32687060  0.49681345    -0.44000
C569        C  0.47486816  0.20890394  0.34345489    -0.00400
C570        C  0.00580585  0.20290522  0.34448201    -0.12200
C571        C  0.02498380  0.23820293  0.34726771     0.01900
C572        C  0.01314394  0.28050590  0.34810562    -0.00500
C573        C  0.48266153  0.28668533  0.34267727    -0.12200
C574        C  0.46344653  0.25133704  0.34027134     0.01800
H575        H  0.01483061  0.17036435  0.34705429     0.14700
H576        H  0.47336311  0.31915535  0.34329093     0.14700
C577        C  0.43190387  0.25946487  0.33881311     0.36400
C578        C  0.05598445  0.22972618  0.35378483     0.36300
N579        N  0.40661099  0.26601698  0.33766895    -0.44000
N580        N  0.08076273  0.22264659  0.35922947    -0.44000
C581        C  0.44822302  0.99197486  0.47785908    -0.00400
C582        C  0.45347976  0.01619293  0.50618034    -0.12200
C583        C  0.47885204  0.00847196  0.52498925     0.01900
C584        C  0.99814497  0.97345363  0.51678192    -0.00500
C585        C  0.98930066  0.94441756  0.49233443    -0.12200
C586        C  0.96434837  0.95323002  0.47294262     0.01800
H587        H  0.44061157  0.04557038  0.51016782     0.14700
H588        H  0.00266313  0.91592840  0.48714922     0.14700
C589        C  0.95818748  0.92549627  0.44537339     0.36400
C590        C  0.48502522  0.03874661  0.55094613     0.36300
N591        N  0.95323685  0.90336427  0.42324148    -0.44000
N592        N  0.48981085  0.06323453  0.57160938    -0.44000
C593        C  0.38195719  0.16265032  0.46049832    -0.00400
C594        C  0.35099337  0.16652074  0.45840519    -0.12200
C595        C  0.33318285  0.16787639  0.48729849     0.01900
C596        C  0.34616338  0.16376469  0.51950372    -0.00500
C597        C  0.37713223  0.16543255  0.52148226    -0.12200
C598        C  0.39494837  0.16560384  0.49269666     0.01800
H599        H  0.34046162  0.16588350  0.43426524     0.14700
H600        H  0.38767919  0.16382716  0.54563750     0.14700
C601        C  0.42667963  0.16682173  0.49751431     0.36400
C602        C  0.30152534  0.17239100  0.48285336     0.36300
N603        N  0.45206982  0.16764918  0.50152831    -0.44000
N604        N  0.27618535  0.17624773  0.47917866    -0.44000
C605        C  0.14771661  0.66096594  0.97146944    -0.00400
C606        C  0.11713900  0.66988367  0.96976725    -0.12200
C607        C  0.09954667  0.67242633  0.99882985     0.01900
C608        C  0.11210428  0.66431981  0.03085237    -0.00500
C609        C  0.14305332  0.66070029  0.03272451    -0.12200
C610        C  0.16082045  0.65971953  0.00381483     0.01800
H611        H  0.10656371  0.67272698  0.94568709     0.14700
H612        H  0.15338787  0.65568562  0.05678365     0.14700
C613        C  0.19247104  0.65564986  0.00866210     0.36400
C614        C  0.06836850  0.68231038  0.99483564     0.36300
N615        N  0.21780867  0.65238521  0.01264910    -0.44000
N616        N  0.04341081  0.69042924  0.99169192    -0.44000
C617        C  0.49143980  0.47557988  0.97541747    -0.00400
C618        C  0.01295429  0.50501532  0.96373374    -0.12200
C619        C  0.03723218  0.51534830  0.98319523     0.01900
C620        C  0.04006093  0.49639958  0.01499573    -0.00500
C621        C  0.52080838  0.46317565  0.02499228    -0.12200
C622        C  0.49607895  0.45349486  0.00598704     0.01800
H623        H  0.01074464  0.52037562  0.93941881     0.14700
H624        H  0.52267687  0.44922807  0.04985643     0.14700
C625        C  0.47461561  0.42387276  0.01996983     0.36400
C626        C  0.05807974  0.54729244  0.97109374     0.36300
N627        N  0.45739295  0.40041278  0.03149928    -0.44000
N628        N  0.07491710  0.57260884  0.96129627    -0.44000
C629        C  0.07203854  0.51872792  0.21939422    -0.00400
C630        C  0.04491667  0.50134360  0.23036202    -0.12200
C631        C  0.04328155  0.47390610  0.25845348     0.01900
C632        C  0.06920589  0.46252350  0.27632367    -0.00500
C633        C  0.09648257  0.47935226  0.26523762    -0.12200
C634        C  0.09809405  0.50706758  0.23698424     0.01800
H635        H  0.02487158  0.50863717  0.21642564     0.14700
H636        H  0.11640303  0.47220541  0.27941027     0.14700
C637        C  0.12680985  0.52179984  0.22584000     0.36400
C638        C  0.51470317  0.45767059  0.26873427     0.36300
N639        N  0.14987192  0.53347556  0.21690575    -0.44000
N640        N  0.49172180  0.44486091  0.27696574    -0.44000
C641        C  0.42494956  0.97168023  0.21463711    -0.00400
C642        C  0.45131847  0.98475258  0.22982060    -0.12200
C643        C  0.45092629  0.01184304  0.25744238     0.01900
C644        C  0.42371061  0.02711087  0.27061643    -0.00500
C645        C  0.39730330  0.01503625  0.25502001    -0.12200
C646        C  0.39773007  0.98791220  0.22719417     0.01800
H647        H  0.47245759  0.97455016  0.21946223     0.14700
H648        H  0.37621284  0.02558272  0.26528336     0.14700
C649        C  0.36997787  0.97867043  0.21126646     0.36400
C650        C  0.97881792  0.02401674  0.27160707     0.36300
N651        N  0.34751544  0.97170750  0.19876790    -0.44000
N652        N  0.00125548  0.03395782  0.28288206    -0.44000
C653        C  0.48112336  0.78078319  0.15000371    -0.00400
C654        C  0.46829672  0.73965120  0.15080048    -0.12200
C655        C  0.48630921  0.70220078  0.15170676     0.01900
C656        C  0.01771454  0.70601200  0.15112800    -0.00500
C657        C  0.03015559  0.74685280  0.15534922    -0.12200
C658        C  0.01205830  0.78416290  0.15516796     0.01800
H659        H  0.44454229  0.73668824  0.14763160     0.14700
H660        H  0.05407696  0.75009844  0.15549385     0.14700
C661        C  0.02600724  0.82580944  0.15783386     0.36400
C662        C  0.47222550  0.66039239  0.15154543     0.36300
N663        N  0.03731564  0.85903807  0.16040198    -0.44000
N664        N  0.46083816  0.62696069  0.15191812    -0.44000
C665        C  0.02700187  0.01784404  0.97163917    -0.00400
C666        C  0.50624648  0.98685714  0.96210490    -0.12200
C667        C  0.48199362  0.97721489  0.98218326     0.01900
C668        C  0.47881891  0.99746226  0.01286613    -0.00500
C669        C  0.49838447  0.03030115  0.02163969    -0.12200
C670        C  0.02238299  0.04069789  0.00127392     0.01800
H671        H  0.50847052  0.97053521  0.93862778     0.14700
H672        H  0.49643475  0.04492210  0.04583864     0.14700
C673        C  0.04282341  0.07307988  0.01231142     0.36400
C674        C  0.46121940  0.94499444  0.97166128     0.36300
N675        N  0.05909445  0.09913988  0.02118587    -0.44000
N676        N  0.44436485  0.91958104  0.96307898    -0.44000
C677        C  0.36596778  0.83431228  0.96081418    -0.00400
C678        C  0.35040764  0.83373132  0.99151031    -0.12200
C679        C  0.36518149  0.83449019  0.02244228     0.01900
C680        C  0.39653397  0.83588616  0.02363076    -0.00500
C681        C  0.41196974  0.83194735  0.99307608    -0.12200
C682        C  0.39724504  0.83133659  0.96221316     0.01800
H683        H  0.32639167  0.83527884  0.99151987     0.14700
H684        H  0.43601481  0.83150633  0.99298235     0.14700
C685        C  0.41505198  0.82910240  0.93237651     0.36400
C686        C  0.34735920  0.83634584  0.05228040     0.36300
N687        N  0.42931781  0.82737133  0.90844268    -0.44000
N688        N  0.33291698  0.83787370  0.07609571    -0.44000
C689        C  0.36299199  0.33746906  0.02869804    -0.00400
C690        C  0.34736105  0.34078834  0.99835831    -0.12200
C691        C  0.36184016  0.34096298  0.96723893     0.01900
C692        C  0.39315707  0.33740567  0.96525049    -0.00500
C693        C  0.40863626  0.33089981  0.99555578    -0.01000
C694        C  0.39405703  0.33107503  0.02679378     0.01800
H695        H  0.32350233  0.34558856  0.99874933     0.14700
H696        H  0.43258674  0.32754114  0.99511931     0.14700
C697        C  0.41166354  0.32509820  0.05642755     0.36400
C698        C  0.34369784  0.34661487  0.93797003     0.36300
N699        N  0.42581117  0.32021339  0.08016429    -0.44000
N700        N  0.32899848  0.35123925  0.91463725    -0.44000
C701        C  0.26669747  0.47733033  0.01992885    -0.00400
C702        C  0.25823265  0.44759721  0.99575311    -0.12200
C703        C  0.23249628  0.45452489  0.97717929     0.01900
C704        C  0.21527047  0.49195995  0.98248697    -0.00500
C705        C  0.22042409  0.51661942  0.01057166    -0.12200
C706        C  0.24666997  0.51126018  0.02825512     0.01800
H707        H  0.27232687  0.41998739  0.99028221     0.14700
H708        H  0.20665314  0.54501037  0.01492494     0.14700
C709        C  0.25270584  0.54286108  0.05328978     0.36400
C710        C  0.22635285  0.42613578  0.95000397     0.36300
N711        N  0.25732490  0.56837808  0.07325066    -0.44000
N712        N  0.22136346  0.40338359  0.92825810    -0.44000
C713        C  0.41091089  0.47944904  0.11027959    -0.00400
C714        C  0.41759255  0.51273473  0.08718465    -0.12200
C715        C  0.44544216  0.53203898  0.08658425     0.01900
C716        C  0.46726391  0.51828902  0.10958855    -0.00500
C717        C  0.46090175  0.48511155  0.13256691    -0.12200
C718        C  0.43307116  0.46572701  0.13331470     0.01800
H719        H  0.40115403  0.52353286  0.06919467     0.14700
H720        H  0.47778224  0.47436563  0.15009001     0.14700
C721        C  0.42821725  0.43243897  0.15844175     0.36400
C722        C  0.45156412  0.56414564  0.06089074     0.36300
N723        N  0.42448840  0.40579777  0.17862912    -0.44000
N724        N  0.45665079  0.58973224  0.04029221    -0.44000
C725        C  0.22060383  0.48171407  0.11471929    -0.00400
C726        C  0.19775418  0.46313406  0.09616281    -0.12200
C727        C  0.16891102  0.47963217  0.09685960     0.01900
C728        C  0.16209517  0.51553420  0.11672856    -0.00500
C729        C  0.18456137  0.53369829  0.13591223    -0.12200
C730        C  0.21355839  0.51705129  0.13533194     0.01800
H731        H  0.20242204  0.43611247  0.08010511     0.14700
H732        H  0.17939017  0.56083770  0.15168170     0.14700
C733        C  0.23531221  0.53721366  0.15606700     0.36400
C734        C  0.14725028  0.46016332  0.07556075     0.36300
N735        N  0.25268417  0.55340760  0.17274242    -0.44000
N736        N  0.13006446  0.44441875  0.05839902    -0.44000
C737        C  0.28762937  0.01574219  0.10548134    -0.00400
C738        C  0.31028141  0.03605156  0.08677645    -0.12200
C739        C  0.33919654  0.01926367  0.08638010     0.01900
C740        C  0.34601090  0.98166599  0.10536109    -0.00500
C741        C  0.32343273  0.96115383  0.12367994    -0.12200
C742        C  0.29456457  0.97750283  0.12391700     0.01800
H743        H  0.30535463  0.06479600  0.07176488     0.14700
H744        H  0.32836670  0.93203055  0.13825942     0.14700
C745        C  0.27267381  0.95303676  0.14248078     0.36400
C746        C  0.36087419  0.03977016  0.06487693     0.36300
N747        N  0.25524821  0.93313967  0.15727143    -0.44000
N748        N  0.37819754  0.05592936  0.04744312    -0.44000
C749        C  0.09790548  0.00128661  0.11325472    -0.00400
C750        C  0.07601240  0.01906520  0.13421047    -0.12200
C751        C  0.04777828  0.00108193  0.13667694     0.01900
C752        C  0.04086692  0.96467816  0.11774956    -0.00500
C753        C  0.06317736  0.94507596  0.09862664    -0.12200
C754        C  0.09146238  0.96287176  0.09617063     0.01800
H755        H  0.08079329  0.04729502  0.14869526     0.14700
H756        H  0.05811163  0.91701464  0.08406509     0.14700
C757        C  0.11272012  0.94147265  0.07495255     0.36400
C758        C  0.02649399  0.02041226  0.15904055     0.36300
N759        N  0.12960615  0.92403220  0.05794827    -0.44000
N760        N  0.00954478  0.03585811  0.17707720    -0.44000
C761        C  0.23446393  0.20679085  0.13207817    -0.00400
C762        C  0.21967914  0.24632977  0.13712024    -0.12200
C763        C  0.23559812  0.28496382  0.14060658     0.01900
C764        C  0.26712252  0.28469182  0.13923824    -0.00500
C765        C  0.28181322  0.24451983  0.13843630    -0.12200
C766        C  0.26593299  0.20591529  0.13477994     0.01800
H767        H  0.19566061  0.24771300  0.13583362     0.14700
H768        H  0.30586516  0.24350089  0.13765608     0.14700
C769        C  0.28277812  0.16605945  0.13226797     0.36400
C770        C  0.21895163  0.32497186  0.14346233     0.36300
N771        N  0.29631731  0.13419522  0.13011671    -0.44000
N772        N  0.20571657  0.35711657  0.14555781    -0.44000
C773        C  0.14021625  0.14337586  0.01655488    -0.00400
C774        C  0.13786612  0.18312098  0.99874273    -0.12200
C775        C  0.12518559  0.18552513  0.96648390     0.01900
C776        C  0.11606205  0.14743133  0.95067381    -0.00500
C777        C  0.11954779  0.10785941  0.96799970    -0.12200
C778        C  0.13076661  0.10557779  0.00051093     0.01800
H779        H  0.14579384  0.21238257  0.01010108     0.14700
H780        H  0.11291237  0.07820008  0.95619034     0.14700
C781        C  0.13274279  0.06341357  0.01646034     0.36400
C782        C  0.12210313  0.22715455  0.94995379     0.36300
N783        N  0.13394037  0.02914051  0.02852285    -0.44000
N784        N  0.11965016  0.26063521  0.93676482    -0.44000
C785        C  0.23013481  0.00136026  0.01165272    -0.00400
C786        C  0.25458465  0.97756455  0.02430180    -0.12200
C787        C  0.27947195  0.96997628  0.00470966     0.01900
C788        C  0.27978379  0.98552669  0.97175636    -0.00500
C789        C  0.25536869  0.00925590  0.95912055    -0.12200
C790        C  0.23044259  0.01670904  0.97861228     0.01800
H791        H  0.25504385  0.96682734  0.05011318     0.14700
H792        H  0.25507904  0.02034979  0.93340922     0.14700
C793        C  0.20525176  0.03894868  0.96387018     0.36400
C794        C  0.30489407  0.94822357  0.01931326     0.36300
N795        N  0.18507884  0.05647860  0.95183031    -0.44000
N796        N  0.32543931  0.93138587  0.03110075    -0.44000
C797        C  0.35068662  0.65838390  0.46120130    -0.00400
C798        C  0.33440091  0.66549416  0.49088895    -0.12200
C799        C  0.34820554  0.66714011  0.52240620     0.01900
C800        C  0.37933099  0.66233859  0.52528249    -0.00500
C801        C  0.39573078  0.65872160  0.49536400    -0.12200
C802        C  0.38198923  0.65637665  0.46398632     0.01800
H803        H  0.31041711  0.66774690  0.48987776     0.14700
H804        H  0.41965387  0.65515563  0.49644243     0.14700
C805        C  0.40085829  0.64998150  0.43538919     0.36400
C806        C  0.32971090  0.67295659  0.55137884     0.36300
N807        N  0.41614058  0.64470092  0.41260569    -0.44000
N808        N  0.31482244  0.67759066  0.57457413    -0.44000
C809        C  0.26041325  0.51141225  0.47535549    -0.00400
C810        C  0.23886338  0.48198631  0.46485335    -0.12200
C811        C  0.21364532  0.47370744  0.48391430     0.01900
C812        C  0.20993797  0.49452634  0.51442555    -0.00500
C813        C  0.23117449  0.52468332  0.52450030    -0.12200
C814        C  0.25641429  0.53277474  0.50557774     0.01800
H815        H  0.24099915  0.46660561  0.44091518     0.14700
H816        H  0.22911594  0.54028755  0.54835162     0.14700
C817        C  0.27826111  0.56191065  0.51839807     0.36400
C818        C  0.19164499  0.44475929  0.47118730     0.36300
N819        N  0.29580447  0.58495304  0.52893250    -0.44000
N820        N  0.17397075  0.42184711  0.46073781    -0.44000
C821        C  0.45444953  0.46945211  0.37504722    -0.00400
C822        C  0.43209409  0.44938724  0.39404488    -0.12200
C823        C  0.40373962  0.46776509  0.39631881     0.01900
C824        C  0.39713734  0.50671982  0.37863195    -0.00500
C825        C  0.41955502  0.52610911  0.35901312    -0.12200
C826        C  0.44794263  0.50802568  0.35719259     0.01800
H827        H  0.43714565  0.42025827  0.40845185     0.14700
H828        H  0.41506102  0.55562449  0.34486976     0.14700
C829        C  0.46985312  0.52963413  0.33660879     0.36400
C830        C  0.38249612  0.44642907  0.41788862     0.36300
N831        N  0.48744126  0.54696664  0.32021920    -0.44000
N832        N  0.36555267  0.42937774  0.43529553    -0.44000
C833        C  0.15000008  0.47634595  0.38140417    -0.00400
C834        C  0.15280266  0.52162138  0.38323680    -0.12200
C835        C  0.18061119  0.54138498  0.38203775     0.01900
C836        C  0.20653549  0.51576657  0.37888228    -0.00500
C837        C  0.20386382  0.47074887  0.37668615    -0.12200
C838        C  0.17616948  0.45085214  0.37802469     0.01800
H839        H  0.13315863  0.54195275  0.38544380     0.14700
H840        H  0.22370129  0.45068893  0.37483472     0.14700
C841        C  0.17575618  0.40424302  0.37572093     0.36400
C842        C  0.18172926  0.58807416  0.38302523     0.36300
N843        N  0.17561248  0.36688887  0.37392887    -0.44000
N844        N  0.18242415  0.62549718  0.38370504    -0.44000
C845        C  0.32762334  0.47320733  0.21462477    -0.00400
C846        C  0.30413425  0.46365732  0.23627380    -0.12200
C847        C  0.29881562  0.48852308  0.26464202     0.01900
C848        C  0.31753177  0.52370465  0.27251416    -0.00500
C849        C  0.34088586  0.53361231  0.25068207    -0.12200
C850        C  0.34595529  0.50907220  0.22200370     0.01800
H851        H  0.28903853  0.43780421  0.23025294     0.14700
H852        H  0.35591700  0.55955971  0.25664839     0.14700
C853        C  0.37052959  0.52116165  0.20069440     0.36400
C854        C  0.27334574  0.47769715  0.28495328     0.36300
N855        N  0.39017750  0.53116833  0.18369233    -0.44000
N856        N  0.25283339  0.46881068  0.30098239    -0.44000
C857        C  0.27429185  0.98057611  0.37397317    -0.00400
C858        C  0.29722450  0.96248997  0.39362138    -0.12200
C859        C  0.32574566  0.97972698  0.39310730     0.01900
C860        C  0.33199430  0.01641558  0.37287030    -0.00500
C861        C  0.30936126  0.03453565  0.35304711    -0.12200
C862        C  0.28087410  0.01669718  0.35297572     0.01800
H863        H  0.29291373  0.93501249  0.41001463     0.14700
H864        H  0.31413735  0.06212106  0.33693814     0.14700
C865        C  0.25930180  0.03588805  0.33056183     0.36400
C866        C  0.34784127  0.95970224  0.41449299     0.36300
N867        N  0.24210044  0.05108120  0.31240282    -0.44000
N868        N  0.36544719  0.94338001  0.43157068    -0.44000
C869        C  0.08391630  0.98093913  0.37842125    -0.00400
C870        C  0.07743316  0.01395369  0.40089212    -0.12200
C871        C  0.04923445  0.03282957  0.40223687     0.01900
C872        C  0.02671970  0.01826290  0.38102589    -0.00500
C873        C  0.03290485  0.98522323  0.35878116    -0.12200
C874        C  0.06118138  0.96684806  0.35685877     0.01800
H875        H  0.09439415  0.02515292  0.41759736     0.14700
H876        H  0.01559739  0.97412394  0.34244331     0.14700
C877        C  0.06583742  0.93454133  0.33180209     0.36400
C878        C  0.04385360  0.06592057  0.42648826     0.36300
N879        N  0.06935678  0.90886683  0.31155189    -0.44000
N880        N  0.03968854  0.09247753  0.44590354    -0.44000
C881        C  0.16864765  0.97584704  0.27256292    -0.00400
C882        C  0.14960501  0.01132581  0.26519516    -0.12200
C883        C  0.15310405  0.03691817  0.23612447     0.01900
C884        C  0.17670000  0.02824912  0.21410707    -0.00500
C885        C  0.19610040  0.99324762  0.22199971    -0.12200
C886        C  0.19208214  0.96694339  0.25050005     0.01800
H887        H  0.13166701  0.01891360  0.28226409     0.14700
H888        H  0.21404664  0.98538385  0.20501271     0.14700
C889        C  0.21267753  0.93167825  0.25688434     0.36400
C890        C  0.13110601  0.06981514  0.22847114     0.36300
N891        N  0.22911107  0.90329914  0.26191787    -0.44000
N892        N  0.11326763  0.09592532  0.22233167    -0.44000
C893        C  0.22563826  0.78698844  0.34350172    -0.00400
C894        C  0.25685696  0.78867000  0.34319650    -0.12200
C895        C  0.27416141  0.75077873  0.34345386     0.01900
C896        C  0.26016426  0.71014610  0.34367404    -0.00500
C897        C  0.22928445  0.70875743  0.33873095    -0.12200
C898        C  0.21193988  0.74671981  0.33851718     0.01800
H899        H  0.26775945  0.81951254  0.34587223     0.14700
H900        H  0.21839428  0.67768988  0.33786441     0.14700
C901        C  0.18012004  0.74267472  0.33657112     0.36400
C902        C  0.30579104  0.75469309  0.34779431     0.36300
N903        N  0.15462848  0.73931986  0.33489737    -0.44000
N904        N  0.33111978  0.75789513  0.35139747    -0.44000
C905        C  0.12965477  0.83652932  0.45877006    -0.00400
C906        C  0.14480205  0.82665616  0.48878581    -0.12200
C907        C  0.13031607  0.82658868  0.52004724     0.01900
C908        C  0.09955857  0.83567530  0.52228478    -0.00500
C909        C  0.08409507  0.84277328  0.49217214    -0.12200
C910        C  0.09858594  0.84379354  0.46102322     0.01800
H911        H  0.16855503  0.82092811  0.48818860     0.14700
H912        H  0.06055533  0.85028663  0.49293810     0.14700
C913        C  0.08091717  0.85504346  0.43221281     0.36400
C914        C  0.14783795  0.81791042  0.54939766     0.36300
N915        N  0.06664299  0.86434442  0.40927260    -0.44000
N916        N  0.16202323  0.81100515  0.57284612    -0.44000
C917        C  0.22245602  0.97638823  0.47352443    -0.00400
C918        C  0.24600331  0.00203009  0.46161201    -0.12200
C919        C  0.26997903  0.01106572  0.48182470     0.01900
C920        C  0.27049710  0.99453298  0.51452297    -0.00500
C921        C  0.24833768  0.96604461  0.52562366    -0.12200
C922        C  0.22396373  0.95760438  0.50564368     0.01800
H923        H  0.24562657  0.01548845  0.43653136     0.14700
H924        H  0.24811155  0.95488931  0.55138213     0.14700
C925        C  0.19952725  0.93351830  0.51983241     0.36400
C926        C  0.29263454  0.04019744  0.46962713     0.36300
N927        N  0.17977050  0.91483240  0.53140685    -0.44000
N928        N  0.31079497  0.06350925  0.45990003    -0.44000
Fe929      Fe  0.65223070  0.88413736  0.35567854     1.65800
Fe930      Fe  0.70652232  0.88812569  0.41189987     1.73200
Fe931      Fe  0.67852386  0.98005357  0.37829118     1.54400
O932        O  0.66457835  0.98149286  0.32974218    -0.81900
O933        O  0.69141428  0.92577623  0.44910786    -0.80200
O934        O  0.66757935  0.91401317  0.31128026    -0.84400
O935        O  0.61950167  0.93084712  0.35890024    -0.79200
O936        O  0.72207152  0.98048864  0.36280015    -0.81000
O937        O  0.67561079  0.84326182  0.42888482    -0.83800
C938        C  0.61448237  0.96300337  0.37731705     0.97000
C939        C  0.66678609  0.95516012  0.30613807     1.04400
O940        O  0.67979060  0.91709335  0.38117082    -1.12700
O941        O  0.72265941  0.84814661  0.37637882    -0.75200
O942        O  0.68177276  0.83192837  0.34882135    -0.78700
O943        O  0.63502503  0.98065848  0.39373572    -0.79400
C944        C  0.70889941  0.82484859  0.35618330     0.95900
O945        O  0.63481359  0.85837994  0.40040851    -0.77300
O946        O  0.74029782  0.93098450  0.39867932    -0.82500
C947        C  0.69976378  0.96434768  0.44952831     0.98500
C948        C  0.74381544  0.96258315  0.37803713     1.04400
O949        O  0.69426193  0.99008356  0.42551513    -0.78200
C950        C  0.64747806  0.84558564  0.42726031     1.02700
Fe951      Fe  0.83186305  0.61022037  0.35813094     1.65800
Fe952      Fe  0.77558143  0.60536116  0.41326922     1.73200
Fe953      Fe  0.80171429  0.51378709  0.37908505     1.54400
O954        O  0.81349204  0.51494171  0.33006102    -0.81900
O955        O  0.78993961  0.56525420  0.45046539    -0.80200
O956        O  0.81962468  0.58309058  0.31210047    -0.84400
O957        O  0.86407970  0.56285351  0.36262958    -0.79200
O958        O  0.75772685  0.51606340  0.36575141    -0.81000
O959        O  0.80609080  0.64948375  0.43031828    -0.83800
C960        C  0.86716530  0.52713081  0.37847562     0.97000
C961        C  0.81656715  0.54248129  0.30666513     1.04400
O962        O  0.80245137  0.57671501  0.38250481    -1.12700
O963        O  0.76056289  0.64709123  0.37719031    -0.75200
O964        O  0.80246228  0.66278562  0.35003480    -0.78700
O965        O  0.84545742  0.50819450  0.39251148    -0.79400
C966        C  0.77524001  0.67048407  0.35696351     0.95900
O967        O  0.84768459  0.63414393  0.40371045    -0.77300
O968        O  0.74084571  0.56470416  0.40171237    -0.82500
C969        C  0.78233995  0.52617636  0.45101747     0.98500
C970        C  0.73665978  0.53394898  0.38174595     1.04400
O971        O  0.78787891  0.50178936  0.42692593    -0.78200
C972        C  0.83419054  0.64759836  0.42962314     1.02700
Fe973      Fe  0.66080103  0.10927265  0.12317893     1.65800
Fe974      Fe  0.71592188  0.10072980  0.06678024     1.73200
Fe975      Fe  0.69281970  0.01218772  0.10934652     1.54400
O976        O  0.68205162  0.01709379  0.15794729    -0.81900
O977        O  0.70118874  0.05759251  0.03327582    -0.80200
O978        O  0.67370124  0.08594256  0.17109941    -0.84400
O979        O  0.62932035  0.06080888  0.12304955    -0.79200
O980        O  0.73669593  0.01781970  0.12137081    -0.81000
O981        O  0.68460961  0.14412942  0.04805874    -0.83800
C982        C  0.62712268  0.02314750  0.11103405     0.97000
C983        C  0.67764390  0.04582865  0.17927924     1.04400
O984        O  0.69035274  0.07438406  0.10072696    -1.12700
O985        O  0.73145010  0.14494011  0.09913233    -0.75200
O986        O  0.69039011  0.16265633  0.12711532    -0.78700
O987        O  0.64910334  0.00353248  0.09822308    -0.79400
C988        C  0.71772073  0.16899904  0.11930335     0.95900
O989        O  0.64372893  0.12804302  0.07586264    -0.77300
O990        O  0.75143342  0.06087181  0.07967445    -0.82500
C991        C  0.70917928  0.01845553  0.03581527     0.98500
C992        C  0.75689753  0.03283065  0.10245553     1.04400
O993        O  0.70555329  0.99661025  0.06231301    -0.78200
C994        C  0.65677968  0.13976287  0.04895138     1.02700
Fe995      Fe  0.84190999  0.38247155  0.13199867     1.65800
Fe996      Fe  0.78811611  0.39163328  0.07551786     1.73200
Fe997      Fe  0.81681239  0.48124513  0.10853012     1.54400
O998        O  0.83007606  0.48012830  0.15719387    -0.81900
O999        O  0.80481424  0.43094310  0.03966330    -0.80200
O1000       O  0.82714083  0.41206052  0.17655628    -0.84400
O1001       O  0.87536569  0.42814618  0.12873795    -0.79200
O1002       O  0.77312695  0.48298025  0.12370039    -0.81000
O1003       O  0.81820712  0.34558761  0.05952059    -0.83800
C1004       C  0.88062550  0.46146613  0.11060499     0.97000
C1005       C  0.82855245  0.45316340  0.18120963     1.04400
O1006       O  0.81477653  0.41809020  0.10643748    -1.12700
O1007       O  0.77073227  0.35074672  0.11011089    -0.75200
O1008       O  0.81108411  0.33050126  0.13817364    -0.78700
O1009       O  0.86035970  0.48045504  0.09373372    -0.79400
C1010       C  0.78397041  0.32482492  0.12972477     0.95900
O1011       O  0.85946519  0.35792012  0.08712908    -0.77300
O1012       O  0.75487186  0.43482070  0.08870514    -0.82500
C1013       C  0.79409886  0.46848210  0.03913928     0.98500
C1014       C  0.75135799  0.46528141  0.10935844     1.04400
O1015       O  0.80209663  0.49478835  0.06078244    -0.78200
C1016       C  0.84630207  0.34652271  0.06063666     1.02700
Fe1017     Fe  0.91162019  0.88146281  0.12844560     1.65800
Fe1018     Fe  0.97213409  0.88640151  0.07851819     1.73200
Fe1019     Fe  0.94366579  0.97933854  0.10936274     1.54400
O1020       O  0.89838119  0.98782731  0.10561843    -0.81900
O1021       O  0.50594730  0.91125694  0.10588767    -0.80200
O1022       O  0.87845291  0.92285682  0.11395782    -0.84400
O1023       O  0.91564485  0.91625602  0.17356862    -0.79200
O1024       O  0.94692541  0.99114125  0.05930599    -0.81000
O1025       O  0.97508232  0.83124814  0.10694333    -0.83800
C1026       C  0.92722287  0.95277528  0.18079113     0.97000
C1027       C  0.87617247  0.96306272  0.10776919     1.04400
O1028       O  0.94236704  0.91584642  0.10584542    -1.12700
O1029       O  0.93988262  0.86202972  0.04880456    -0.75200
O1030       O  0.90243680  0.84765825  0.08359554    -0.78700
O1031       O  0.94054200  0.97644684  0.15967181    -0.79400
C1032       C  0.91383926  0.84828223  0.05416206     0.95900
O1033       O  0.94157890  0.83447787  0.14722334    -0.77300
O1034       O  0.97628141  0.93627884  0.04563201    -0.82500
C1035       C  0.51016842  0.95048393  0.11328784     0.98500
C1036       C  0.96531274  0.97333537  0.04012656     1.04400
O1037       O  0.48944521  0.97876617  0.11378351    -0.78200
C1038       C  0.96462925  0.81771654  0.13425616     1.02700
Fe1039     Fe  0.59234291  0.61211337  0.13417157     1.65800
Fe1040     Fe  0.53531759  0.60522730  0.07958867     1.73200
Fe1041     Fe  0.56482236  0.51352634  0.11293803     1.54400
O1042       O  0.61008655  0.50814695  0.11594857    -0.81900
O1043       O  0.00071777  0.57619124  0.10332157    -0.80200
O1044       O  0.62840816  0.57378727  0.12288996    -0.84400
O1045       O  0.58553125  0.57464938  0.17873187    -0.79200
O1046       O  0.56858239  0.50563316  0.06278094    -0.81000
O1047       O  0.52735460  0.65727786  0.10861737    -0.83800
C1048       C  0.57298852  0.53815353  0.18522024     0.97000
C1049       C  0.63173194  0.53358001  0.11840132     1.04400
O1050       O  0.56426284  0.57701216  0.10930705    -1.12700
O1051       O  0.56804842  0.63504884  0.05324265    -0.75200
O1052       O  0.60350531  0.64864072  0.08999245    -0.78700
O1053       O  0.56145249  0.51514273  0.16314314    -0.79400
C1054       C  0.59328636  0.64983640  0.06010845     0.95900
O1055       O  0.55950575  0.65612394  0.15012032    -0.77300
O1056       O  0.53699497  0.55707111  0.04598830    -0.82500
C1057       C  0.99744765  0.53593917  0.10827841     0.98500
C1058       C  0.55088467  0.52194422  0.04170769     1.04400
O1059       O  0.01912268  0.50945673  0.11042908    -0.78200
C1060       C  0.53607157  0.67074282  0.13621690     1.02700
Fe1061     Fe  0.90078481  0.11444251  0.35657422     1.65800
Fe1062     Fe  0.95752219  0.10242268  0.41119211     1.73200
Fe1063     Fe  0.92918774  0.01412597  0.37657858     1.54400
O1064       O  0.88403614  0.00922315  0.37180113    -0.81900
O1065       O  0.49251569  0.07538387  0.38743929    -0.80200
O1066       O  0.86487204  0.07562941  0.36777995    -0.84400
O1067       O  0.90821558  0.07959635  0.31172727    -0.79200
O1068       O  0.92367326  0.00295875  0.42647639    -0.81000
O1069       O  0.96467303  0.15697500  0.38376794    -0.83800
C1070       C  0.92220460  0.04429918  0.30475200     0.97000
C1071       C  0.86203928  0.03493840  0.37080493     1.04400
O1072       O  0.92899878  0.07719382  0.38101177    -1.12700
O1073       O  0.92452576  0.13007142  0.43760364    -0.75200
O1074       O  0.88954807  0.14883719  0.40093902    -0.78700
O1075       O  0.93430229  0.01998862  0.32658676    -0.79400
C1076       C  0.89976620  0.14741155  0.43083493     0.95900
O1077       O  0.93349081  0.15912013  0.34132161    -0.77300
O1078       O  0.95587846  0.05141814  0.44361553    -0.82500
C1079       C  0.49636496  0.03535064  0.38307184     0.98500
C1080       C  0.94090111  0.01743582  0.44810911     1.04400
O1081       O  0.47498662  0.00898071  0.38127092    -0.78200
C1082       C  0.95626410  0.17283687  0.35631650     1.02700
Fe1083     Fe  0.58333257  0.37721415  0.36811230     1.65800
Fe1084     Fe  0.52113401  0.38816331  0.41425604     1.73200
Fe1085     Fe  0.55194646  0.47645572  0.37948285     1.54400
O1086       O  0.59754584  0.48279964  0.37815905    -0.81900
O1087       O  0.98896010  0.41253741  0.38346510    -0.80200
O1088       O  0.61686750  0.41683348  0.38278186    -0.84400
O1089       O  0.58107936  0.41142035  0.32133464    -0.79200
O1090       O  0.55241675  0.48877059  0.42914646    -0.81000
O1091       O  0.51871953  0.33116574  0.38971954    -0.83800
C1092       C  0.56692535  0.44551386  0.31098930     0.97000
C1093       C  0.61973465  0.45750385  0.38122558     1.04400
O1094       O  0.55236039  0.41374658  0.38691160    -1.12700
O1095       O  0.55166825  0.36446468  0.44699005    -0.75200
O1096       O  0.58966994  0.34421714  0.41500852    -0.78700
O1097       O  0.55121517  0.46883886  0.32977895    -0.79400
C1098       C  0.57731337  0.34806946  0.44378892     0.95900
O1099       O  0.55309070  0.33208431  0.35015303    -0.77300
O1100       O  0.51757689  0.44123615  0.44298317    -0.82500
C1101       C  0.98487882  0.45276982  0.37849412     0.98500
C1102       C  0.53196186  0.47535120  0.44810752     1.04400
O1103       O  0.00592688  0.47980117  0.37937924    -0.78200
C1104       C  0.52967821  0.31658799  0.36327303     1.02700
Fe1105     Fe  0.83110384  0.11590395  0.62462863     1.65800
Fe1106     Fe  0.77102570  0.10866082  0.57410291     1.73200
Fe1107     Fe  0.79919514  0.01819173  0.61058843     1.54400
O1108       O  0.84488533  0.00979272  0.61276278    -0.81900
O1109       O  0.73598571  0.08356493  0.60040756    -0.80200
O1110       O  0.86555517  0.07486455  0.61166439    -0.84400
O1111       O  0.82771066  0.08000817  0.67057668    -0.79200
O1112       O  0.80084006  0.00535720  0.56099417    -0.81000
O1113       O  0.76673192  0.16407081  0.60064786    -0.83800
C1114       C  0.81417354  0.04515649  0.67966834     0.97000
C1115       C  0.86754699  0.03385237  0.61165411     1.04400
O1116       O  0.80054790  0.08104716  0.60341421    -1.12700
O1117       O  0.80344562  0.13385812  0.54450014    -0.75200
O1118       O  0.83985061  0.15056394  0.57911766    -0.78700
O1119       O  0.79709869  0.02550369  0.66034124    -0.79400
C1120       C  0.82869069  0.14970158  0.54974487     0.95900
O1121       O  0.80007994  0.16264515  0.64116320    -0.77300
O1122       O  0.76977720  0.05731555  0.54353358    -0.82500
C1123       C  0.73186792  0.04373286  0.60679729     0.98500
C1124       C  0.78250481  0.02105267  0.54029733     1.04400
O1125       O  0.75307609  0.01644997  0.60952339    -0.78200
C1126       C  0.77712378  0.17899142  0.62710493     1.02700
Fe1127     Fe  0.65009193  0.39038309  0.63643811     1.65800
Fe1128     Fe  0.70199155  0.40101092  0.57715916     1.73200
Fe1129     Fe  0.67401231  0.48962104  0.61356099     1.54400
O1130       O  0.62999937  0.48990715  0.60213567    -0.81900
O1131       O  0.73463954  0.44565655  0.58556986    -0.80200
O1132       O  0.61508653  0.43514081  0.63482130    -0.84400
O1133       O  0.66538999  0.41854540  0.68072179    -0.79200
O1134       O  0.68474596  0.50257340  0.56488950    -0.81000
O1135       O  0.72185248  0.36139601  0.61170813    -0.83800
C1136       C  0.66521176  0.45932265  0.68647093     0.97000
C1137       C  0.60968762  0.46877302  0.61689469     1.04400
O1138       O  0.67604838  0.42680738  0.60999522    -1.12700
O1139       O  0.67325675  0.35275539  0.56426780    -0.75200
O1140       O  0.63213893  0.36535723  0.59237844    -0.78700
O1141       O  0.66390665  0.48767666  0.66336678    -0.79400
C1142       C  0.64527770  0.35256980  0.56605964     0.95900
O1143       O  0.68244009  0.33975678  0.64097410    -0.77300
O1144       O  0.68294993  0.43921832  0.54115218    -0.82500
C1145       C  0.73933790  0.47559567  0.60606983     0.98500
C1146       C  0.68920004  0.47888870  0.54010858     1.04400
O1147       O  0.71878332  0.49140792  0.62417557    -0.78200
C1148       C  0.70961520  0.33511371  0.63191954     1.02700
Fe1149     Fe  0.84578097  0.88073719  0.85645150     1.65800
Fe1150     Fe  0.79141506  0.89106343  0.91296143     1.73200
Fe1151     Fe  0.81944442  0.97972038  0.87482594     1.54400
O1152       O  0.86324134  0.98059584  0.88875409    -0.81900
O1153       O  0.75807165  0.93459157  0.90014779    -0.80200
O1154       O  0.87988097  0.92585899  0.85826250    -0.84400
O1155       O  0.83173949  0.90857768  0.81062376    -0.79200
O1156       O  0.80575868  0.99325610  0.92196833    -0.81000
O1157       O  0.77398442  0.85023038  0.87905357    -0.83800
C1158       C  0.83172076  0.94935322  0.80378383     0.97000
C1159       C  0.88427482  0.96002868  0.87474960     1.04400
O1160       O  0.81826213  0.91689234  0.88053552    -1.12700
O1161       O  0.82090265  0.84434072  0.93042533    -0.75200
O1162       O  0.86229685  0.85613095  0.90225249    -0.78700
O1163       O  0.83225754  0.97752009  0.82610308    -0.79400
C1164       C  0.84897876  0.84443571  0.92904986     0.95900
O1165       O  0.81455584  0.83020847  0.85132387    -0.77300
O1166       O  0.80790355  0.93026937  0.94831289    -0.82500
C1167       C  0.75378643  0.96375176  0.87786736     0.98500
C1168       C  0.80104305  0.96984859  0.94741749     1.04400
O1169       O  0.77504841  0.98071735  0.86118377    -0.78200
C1170       C  0.78724017  0.82507865  0.85930612     1.02700
Fe1171     Fe  0.66252237  0.61493943  0.86624468     1.65800
Fe1172     Fe  0.72185807  0.60354876  0.91667037     1.73200
Fe1173     Fe  0.69296707  0.51540232  0.88296658     1.54400
O1174       O  0.64758809  0.50975118  0.87749422    -0.81900
O1175       O  0.75586474  0.57771911  0.88949072    -0.80200
O1176       O  0.62807753  0.57564718  0.88030165    -0.84400
O1177       O  0.66739424  0.57932480  0.82102966    -0.79200
O1178       O  0.68818344  0.50352241  0.93287761    -0.81000
O1179       O  0.72671481  0.65947152  0.88951638    -0.83800
C1180       C  0.68200218  0.54497404  0.81260894     0.97000
C1181       C  0.62530697  0.53504404  0.87882393     1.04400
O1182       O  0.69225521  0.57825781  0.88825657    -1.12700
O1183       O  0.68975622  0.62957548  0.94593338    -0.75200
O1184       O  0.65340789  0.64921674  0.91133403    -0.78700
O1185       O  0.69759253  0.52321509  0.83315730    -0.79400
C1186       C  0.66462210  0.64686119  0.94077321     0.95900
O1187       O  0.69367095  0.66041118  0.84880889    -0.77300
O1188       O  0.72198334  0.55107677  0.94810739    -0.82500
C1189       C  0.76012266  0.53741738  0.88687913     0.98500
C1190       C  0.70676462  0.51736111  0.95341783     1.04400
O1191       O  0.73901920  0.51040801  0.88745654    -0.78200
C1192       C  0.71659464  0.67539617  0.86272240     1.02700
Fe1193     Fe  0.58230047  0.88154548  0.62574205     1.65800
Fe1194     Fe  0.52417215  0.88583394  0.57351249     1.73200
Fe1195     Fe  0.55163918  0.97831149  0.60330266     1.54400
O1196       O  0.56671084  0.97849644  0.65075290    -0.81900
O1197       O  0.53579896  0.92582208  0.53561404    -0.80200
O1198       O  0.57122516  0.91117356  0.67105862    -0.84400
O1199       O  0.61412689  0.92911678  0.61862975    -0.79200
O1200       O  0.00834069  0.97772489  0.62087566    -0.81000
O1201       O  0.55514739  0.84294891  0.55426843    -0.83800
C1202       C  0.61675793  0.96408066  0.60154932     0.97000
C1203       C  0.57086707  0.95239942  0.67484038     1.04400
O1204       O  0.55208043  0.91489255  0.60189717    -1.12700
O1205       O  0.51138137  0.84378540  0.60988339    -0.75200
O1206       O  0.55330255  0.82868943  0.63693405    -0.78700
O1207       O  0.59489950  0.98167608  0.58635001    -0.79400
C1208       C  0.52593531  0.82125459  0.63075224     0.95900
O1209       O  0.59722289  0.85597402  0.58033326    -0.77300
O1210       O  0.98976759  0.92629971  0.58905979    -0.82500
C1211       C  0.52519876  0.96345701  0.53588299     0.98500
C1212       C  0.98632371  0.95847394  0.60820949     1.04400
O1213       O  0.53443004  0.99003159  0.55666682    -0.78200
C1214       C  0.58330064  0.84419702  0.55450449     1.02700
Fe1215     Fe  0.89859453  0.61584513  0.62993951     1.65800
Fe1216     Fe  0.95336452  0.60978292  0.57358848     1.73200
Fe1217     Fe  0.92361686  0.51865052  0.60633916     1.54400
O1218       O  0.90974451  0.51715909  0.65473344    -0.81900
O1219       O  0.93830613  0.57279778  0.53637739    -0.80200
O1220       O  0.91269775  0.58347414  0.67444782    -0.84400
O1221       O  0.86467386  0.57145041  0.62580809    -0.79200
O1222       O  0.46752311  0.51546943  0.62141694    -0.81000
O1223       O  0.92365080  0.65689810  0.55755939    -0.83800
C1224       C  0.85957464  0.53966286  0.60706366     0.97000
C1225       C  0.91234712  0.54207684  0.67897919     1.04400
O1226       O  0.92589612  0.58166362  0.60410255    -1.12700
O1227       O  0.97014319  0.64821412  0.60913198    -0.75200
O1228       O  0.92983448  0.66587072  0.63805418    -0.78700
O1229       O  0.88014392  0.52046944  0.59120531    -0.79400
C1230       C  0.95726721  0.67106729  0.63060788     0.95900
O1231       O  0.88197958  0.64323729  0.58470268    -0.77300
O1232       O  0.48607353  0.56563260  0.58639217    -0.82500
C1233       C  0.94673539  0.53390962  0.53632937     0.98500
C1234       C  0.48934255  0.53384493  0.60673584     1.04400
O1235       O  0.93844225  0.50798848  0.55895949    -0.78200
C1236       C  0.89558192  0.65493011  0.55802223     1.02700
Fe1237     Fe  0.59420989  0.10941624  0.84829667     1.65800
Fe1238     Fe  0.54086373  0.10531960  0.90625192     1.73200
Fe1239     Fe  0.56939171  0.01339341  0.87576630     1.54400
O1240       O  0.58163386  0.01252899  0.82691543    -0.81900
O1241       O  0.55721748  0.06909685  0.94447828    -0.80200
O1242       O  0.57729856  0.07934421  0.80559938    -0.84400
O1243       O  0.62758833  0.06264465  0.85035782    -0.79200
O1244       O  0.02495030  0.01098466  0.86270362    -0.81000
O1245       O  0.57186776  0.15181527  0.91873793    -0.83800
C1246       C  0.63363574  0.03192434  0.87080494     0.97000
C1247       C  0.57751754  0.03793592  0.80234230     1.04400
O1248       O  0.56731540  0.07618419  0.87591781    -1.12700
O1249       O  0.52319229  0.14332169  0.86942363    -0.75200
O1250       O  0.56420299  0.16276464  0.84255919    -0.78700
O1251       O  0.61365544  0.01413707  0.88880713    -0.79400
C1252       C  0.53693651  0.16918662  0.85031030     0.95900
O1253       O  0.61299433  0.13336435  0.89207147    -0.77300
O1254       O  0.00725534  0.06137888  0.89700248    -0.82500
C1255       C  0.54967569  0.03018530  0.94695180     0.98500
C1256       C  0.00346799  0.02932723  0.87793913     1.04400
O1257       O  0.55579249  0.00389699  0.92420305    -0.78200
C1258       C  0.59983424  0.14641339  0.91825704     1.02700
Fe1259     Fe  0.91279071  0.38657306  0.86153806     1.65800
Fe1260     Fe  0.96986617  0.38721469  0.91541042     1.73200
Fe1261     Fe  0.94351755  0.48107832  0.88291399     1.54400
O1262       O  0.92838510  0.48357269  0.83503775    -0.81900
O1263       O  0.95789511  0.42622245  0.95312233    -0.80200
O1264       O  0.92412706  0.41711288  0.81570699    -0.84400
O1265       O  0.88093464  0.43465717  0.86787777    -0.79200
O1266       O  0.48666255  0.47888673  0.86590892    -0.81000
O1267       O  0.93867603  0.34453090  0.93460922    -0.83800
C1268       C  0.87846371  0.46808561  0.88568486     0.97000
C1269       C  0.92440624  0.45842789  0.81110391     1.04400
O1270       O  0.94270141  0.41791823  0.88559599    -1.12700
O1271       O  0.98337081  0.34565821  0.87961375    -0.75200
O1272       O  0.94183410  0.33343409  0.85166330    -0.78700
O1273       O  0.90037061  0.48522715  0.90009387    -0.79400
C1274       C  0.96889598  0.32423723  0.85880605     0.95900
O1275       O  0.89747626  0.36017969  0.90706979    -0.77300
O1276       O  0.50425153  0.42770489  0.90083838    -0.82500
C1277       C  0.96739134  0.46427093  0.95288810     0.98500
C1278       C  0.50815298  0.45945960  0.88061166     1.04400
O1279       O  0.96100905  0.49033079  0.92938585    -0.78200
C1280       C  0.91057688  0.34693043  0.93351144     1.02700
C1281       C  0.52036287  0.20946273  0.84004019    -0.00400
C1282       C  0.98903503  0.20772392  0.83874467    -0.12200
C1283       C  0.97133139  0.24525530  0.84152097     0.01900
C1284       C  0.98485712  0.28599558  0.84465345    -0.00500
C1285       C  0.51607915  0.28817189  0.84156934    -0.12200
C1286       C  0.53379802  0.25057940  0.83962847     0.01800
H1287       H  0.97827870  0.17642943  0.83881623     0.14700
H1288       H  0.52688967  0.31924653  0.84361273     0.14700
C1289       C  0.56557658  0.25516596  0.84165411     0.36400
C1290       C  0.93971958  0.24007653  0.84541955     0.36300
N1291       N  0.59101993  0.25895851  0.84357938    -0.44000
N1292       N  0.91443296  0.23551037  0.84881541    -0.44000
C1293       C  0.91462439  0.52018916  0.71276950    -0.00400
C1294       C  0.91338137  0.54497059  0.74144487    -0.12200
C1295       C  0.91541625  0.52560538  0.77330557     0.01900
C1296       C  0.92005070  0.47987609  0.77745310    -0.00500
C1297       C  0.92074835  0.45496998  0.74883672    -0.12200
C1298       C  0.91774782  0.47412740  0.71701253     0.01800
H1299       H  0.91027968  0.57972037  0.73907090     0.14700
H1300       H  0.92370502  0.42019407  0.75124505     0.14700
C1301       C  0.91786354  0.44465016  0.68953910     0.36400
C1302       C  0.91152437  0.55414476  0.80104970     0.36300
N1303       N  0.91771115  0.42068651  0.66778233    -0.44000
N1304       N  0.90818727  0.57718867  0.82312140    -0.44000
C1305       C  0.57462581  0.97318660  0.70768822    -0.00400
C1306       C  0.56579319  0.95138248  0.73669337    -0.12200
C1307       C  0.56597276  0.97203600  0.76739553     0.01900
C1308       C  0.57463952  0.01634947  0.76961535    -0.00500
C1309       C  0.58369001  0.03801408  0.74058501    -0.12200
C1310       C  0.58447458  0.01683927  0.71008658     0.01800
H1311       H  0.55823766  0.91822570  0.73534789     0.14700
H1312       H  0.59139088  0.07109579  0.74190692     0.14700
C1313       C  0.59687687  0.04057550  0.68205023     0.36400
C1314       C  0.55703345  0.94621388  0.79602842     0.36300
N1315       N  0.60696450  0.05975324  0.65979415    -0.44000
N1316       N  0.55007228  0.92519135  0.81884056    -0.44000
C1317       C  0.97507586  0.70708221  0.64449226    -0.00400
C1318       C  0.96148655  0.74749682  0.64921248    -0.12200
C1319       C  0.97849196  0.78535664  0.64996618     0.01900
C1320       C  0.50971414  0.78332383  0.64537122    -0.00500
C1321       C  0.52352284  0.74243164  0.64629565    -0.12200
C1322       C  0.50648933  0.70444977  0.64605267     0.01800
H1323       H  0.93748542  0.75013889  0.64910377     0.14700
H1324       H  0.54744937  0.74005800  0.64391573     0.14700
C1325       C  0.52188254  0.66318947  0.64546299     0.36400
C1326       C  0.96304446  0.82640072  0.65245642     0.36300
N1327       N  0.53411120  0.63006819  0.64504465    -0.44000
N1328       N  0.95072152  0.85932575  0.65429089    -0.44000
C1329       C  0.79069219  0.52102604  0.88618282    -0.00400
C1330       C  0.80237592  0.50247118  0.91551464    -0.12200
C1331       C  0.83160934  0.48685873  0.91648866     0.01900
C1332       C  0.84907155  0.48862833  0.88743746    -0.00500
C1333       C  0.83742548  0.50750531  0.85818666    -0.12200
C1334       C  0.80858463  0.52458256  0.85757163     0.01800
H1335       H  0.78868485  0.50055391  0.93773896     0.14700
H1336       H  0.85095923  0.50893494  0.83582315     0.14700
C1337       C  0.79780741  0.54544156  0.82748177     0.36400
C1338       C  0.84302765  0.46862541  0.94723301     0.36300
N1339       N  0.78926044  0.56244454  0.80343354    -0.44000
N1340       N  0.85221396  0.45433412  0.97196668    -0.44000
C1341       C  0.53861545  0.47669756  0.87669086    -0.00400
C1342       C  0.54194649  0.52055429  0.86766567    -0.12200
C1343       C  0.56967386  0.54043101  0.86845317     0.01900
C1344       C  0.59513138  0.51612474  0.87813427    -0.00500
C1345       C  0.59191136  0.47193105  0.88615001    -0.12200
C1346       C  0.56416289  0.45216331  0.88564491     0.01800
H1347       H  0.52262730  0.53999392  0.86105483     0.14700
H1348       H  0.61114290  0.45264707  0.89332969     0.14700
C1349       C  0.56284948  0.40665762  0.89458377     0.36400
C1350       C  0.57103110  0.58572959  0.85894995     0.36300
N1351       N  0.56187438  0.37027001  0.90193192    -0.44000
N1352       N  0.57200476  0.62205075  0.85140237    -0.44000
C1353       C  0.91482900  0.97724705  0.87618857    -0.00400
C1354       C  0.93389482  0.97139128  0.84883325    -0.12200
C1355       C  0.96253398  0.98873140  0.84818458     0.01900
C1356       C  0.97291775  0.01179603  0.87572173    -0.00500
C1357       C  0.95364258  0.01784851  0.90291049    -0.12200
C1358       C  0.92501958  0.00085562  0.90345623     0.01800
H1359       H  0.92605405  0.95428499  0.82731462     0.14700
H1360       H  0.96110880  0.03543286  0.92434986     0.14700
C1361       C  0.90713004  0.00676973  0.93294082     0.36400
C1362       C  0.97966091  0.98491578  0.81799401     0.36300
N1363       N  0.89294043  0.01131747  0.95668493    -0.44000
N1364       N  0.99269000  0.98215391  0.79327578    -0.44000
C1365       C  0.66460528  0.01516600  0.87204515    -0.00400
C1366       C  0.66946321  0.97164395  0.88112104    -0.12200
C1367       C  0.69805717  0.95372057  0.88161695     0.01900
C1368       C  0.72286637  0.97971787  0.87324412    -0.00500
C1369       C  0.71798718  0.02304937  0.86350906    -0.12200
C1370       C  0.68930632  0.04093558  0.86285222     0.01800
H1371       H  0.65075486  0.95120337  0.88742536     0.14700
H1372       H  0.73673735  0.04353512  0.85748890     0.14700
C1373       C  0.68622479  0.08626084  0.85382718     0.36400
C1374       C  0.70095187  0.90827050  0.89036597     0.36300
N1375       N  0.68382596  0.12255873  0.84651623    -0.44000
N1376       N  0.70303964  0.87189083  0.89752315    -0.44000
C1377       C  0.76993867  0.78709826  0.84784106    -0.00400
C1378       C  0.73877265  0.79113771  0.84558314    -0.12200
C1379       C  0.72041698  0.75455550  0.84598122     0.01900
C1380       C  0.73322144  0.71287370  0.84866871    -0.00500
C1381       C  0.76429208  0.70877188  0.84655602    -0.12200
C1382       C  0.78266347  0.74523760  0.84592434     0.01800
H1383       H  0.72856639  0.82313181  0.84603701     0.14700
H1384       H  0.77437993  0.67670651  0.84829140     0.14700
C1385       C  0.81435080  0.73830375  0.84693593     0.36400
C1386       C  0.68865959  0.76074883  0.84717144     0.36300
N1387       N  0.83974225  0.73254032  0.84768537    -0.44000
N1388       N  0.66320088  0.76579554  0.84805642    -0.44000
C1389       C  0.76989528  0.49281738  0.60708218    -0.00400
C1390       C  0.78886861  0.48467326  0.57988487    -0.12200
C1391       C  0.81795228  0.49977561  0.57892846     0.01900
C1392       C  0.82876770  0.52372146  0.60569032    -0.00500
C1393       C  0.80980025  0.53211105  0.63277791    -0.12200
C1394       C  0.78071592  0.51688293  0.63377673     0.01800
H1395       H  0.78091335  0.46681451  0.55886045     0.14700
H1396       H  0.81788473  0.54992702  0.65375970     0.14700
C1397       C  0.76309599  0.52521913  0.66307187     0.36400
C1398       C  0.83562183  0.49125324  0.54966459     0.36300
N1399       N  0.74907759  0.53187124  0.68662792    -0.44000
N1400       N  0.84957255  0.48435752  0.52609799    -0.44000
C1401       C  0.51992802  0.51677952  0.61086563    -0.00400
C1402       C  0.54001057  0.52435932  0.58456212    -0.12200
C1403       C  0.56895970  0.50841453  0.58566385     0.01900
C1404       C  0.57874807  0.48456814  0.61390112    -0.00500
C1405       C  0.55873502  0.47668166  0.64023405    -0.12200
C1406       C  0.52955697  0.49272181  0.63904318     0.01800
H1407       H  0.53294037  0.54214609  0.56244827     0.14700
H1408       H  0.56606759  0.45873459  0.66215028     0.14700
C1409       C  0.51056075  0.48546959  0.66755421     0.36400
C1410       C  0.58755402  0.51583565  0.55676192     0.36300
N1411       N  0.49545822  0.47974940  0.69053035    -0.44000
N1412       N  0.60225400  0.52188791  0.53350031    -0.44000
C1413       C  0.66752090  0.47701165  0.72051028    -0.00400
C1414       C  0.69383979  0.47052148  0.73821269    -0.12200
C1415       C  0.69988999  0.49427344  0.76681673     0.01900
C1416       C  0.67917869  0.52570089  0.77872926    -0.00500
C1417       C  0.65287565  0.53229744  0.76066497    -0.12200
C1418       C  0.64700046  0.50853292  0.73194370     0.01800
H1419       H  0.71032650  0.44790297  0.72891908     0.14700
H1420       H  0.63632418  0.55504454  0.76957383     0.14700
C1421       C  0.61932117  0.51655466  0.71488648     0.36400
C1422       C  0.72782869  0.48541834  0.78314511     0.36300
N1423       N  0.59702622  0.52309214  0.70147810    -0.44000
N1424       N  0.75009880  0.47767673  0.79626157    -0.44000
C1425       C  0.95543170  0.97562399  0.61313704    -0.00400
C1426       C  0.93229788  0.95675418  0.59511716    -0.12200
C1427       C  0.90375374  0.97498039  0.59422128     0.01900
C1428       C  0.89750815  0.01323666  0.61162683    -0.00500
C1429       C  0.92012432  0.03140224  0.63064321    -0.12200
C1430       C  0.94869787  0.01289186  0.63191164     0.01800
H1431       H  0.93662629  0.92817641  0.58050112     0.14700
H1432       H  0.91535530  0.06015073  0.64492465     0.14700
C1433       C  0.97041652  0.03325592  0.65257205     0.36400
C1434       C  0.88179898  0.95486751  0.57373271     0.36300
N1435       N  0.98770453  0.04966794  0.66923005    -0.44000
N1436       N  0.86435536  0.93859710  0.55720588    -0.44000
C1437       C  0.70132241  0.02735272  0.60768055    -0.00400
C1438       C  0.68329248  0.03508708  0.57977370    -0.12200
C1439       C  0.65576777  0.01481867  0.57680705     0.01900
C1440       C  0.64591528  0.98605400  0.60219924    -0.00500
C1441       C  0.66383433  0.97942755  0.63051551    -0.12200
C1442       C  0.69120152  0.99985497  0.63345573     0.01800
H1443       H  0.69128649  0.05574558  0.55959025     0.14700
H1444       H  0.65624126  0.95868380  0.65084508     0.14700
C1445       C  0.70796366  0.99351392  0.66368146     0.36400
C1446       C  0.63886893  0.02283062  0.54689199     0.36300
N1447       N  0.72113314  0.98883623  0.68812626    -0.44000
N1448       N  0.62544297  0.02942729  0.52284172    -0.44000
C1449       C  0.81913277  0.02277962  0.71275391    -0.00400
C1450       C  0.79952661  0.98904634  0.72216551    -0.12200
C1451       C  0.80494756  0.96146285  0.74963223     0.01900
C1452       C  0.83002260  0.96768461  0.76944258    -0.00500
C1453       C  0.84980198  0.00105182  0.76030263    -0.12200
C1454       C  0.84497223  0.02785748  0.73205424     0.01800
H1455       H  0.77981087  0.98347941  0.70764285     0.14700
H1456       H  0.86897121  0.00667369  0.77578710     0.14700
C1457       C  0.86744836  0.05899124  0.72308837     0.36400
C1458       C  0.78378502  0.92803148  0.75767769     0.36300
N1459       N  0.88573218  0.08359116  0.71599571    -0.44000
N1460       N  0.76688244  0.90107827  0.76391865    -0.44000
C1461       C  0.72742974  0.29587782  0.64213162    -0.00400
C1462       C  0.71328594  0.25567094  0.64480710    -0.12200
C1463       C  0.72970985  0.21675430  0.64395628     0.01900
C1464       C  0.76099744  0.21734307  0.64046295    -0.00500
C1465       C  0.77537235  0.25732335  0.64179393    -0.12200
C1466       C  0.75894310  0.29634910  0.64278475     0.01800
H1467       H  0.68926500  0.25445682  0.64485044     0.14700
H1468       H  0.79931498  0.25835205  0.63940231     0.14700
C1469       C  0.77498121  0.33660931  0.64302902     0.36400
C1470       C  0.71377836  0.17639766  0.64500223     0.36300
N1471       N  0.78767166  0.36899662  0.64327930    -0.44000
N1472       N  0.70091432  0.14415515  0.64608021    -0.44000
C1473       C  0.52072321  0.50125904  0.47498964    -0.00400
C1474       C  0.01619142  0.47832249  0.50475231    -0.12200
C1475       C  0.99123166  0.48658180  0.52401080     0.01900
C1476       C  0.97165138  0.52110410  0.51482553    -0.00500
C1477       C  0.47854474  0.54750585  0.48713790    -0.12200
C1478       C  0.50281878  0.53753567  0.46696836     0.01800
H1479       H  0.02981741  0.45019757  0.51048355     0.14700
H1480       H  0.46442297  0.57466650  0.48044359     0.14700
C1481       C  0.50664291  0.56161549  0.43611262     0.36400
C1482       C  0.98630679  0.45759221  0.55213305     0.36300
N1483       N  0.50955295  0.58076635  0.41131492    -0.44000
N1484       N  0.98268976  0.43411739  0.57454380    -0.44000
C1485       C  0.59377652  0.33712792  0.47557904    -0.00400
C1486       C  0.62475381  0.33232623  0.47480302    -0.12200
C1487       C  0.64178429  0.33328483  0.50408729     0.01900
C1488       C  0.62800497  0.34005766  0.53560840    -0.00500
C1489       C  0.59687257  0.34068332  0.53666255    -0.12200
C1490       C  0.57982600  0.33868615  0.50747799     0.01800
H1491       H  0.63601306  0.33033159  0.45103368     0.14700
H1492       H  0.58565794  0.34458480  0.56028925     0.14700
C1493       C  0.54795186  0.33967304  0.51147480     0.36400
C1494       C  0.67355580  0.32943634  0.50022994     0.36300
N1495       N  0.52244956  0.34048419  0.51491133    -0.44000
N1496       N  0.69900119  0.32645815  0.49689737    -0.44000
C1497       C  0.97475330  0.20888455  0.34319972    -0.00400
C1498       C  0.50591799  0.20290508  0.34477268    -0.12200
C1499       C  0.52510496  0.23819822  0.34751642     0.01900
C1500       C  0.51327927  0.28051423  0.34824883    -0.00500
C1501       C  0.98252178  0.28667075  0.34254685    -0.12200
C1502       C  0.96331957  0.25131480  0.34006668     0.01800
H1503       H  0.51493061  0.17036466  0.34740246     0.14700
H1504       H  0.97321221  0.31913179  0.34320717     0.14700
C1505       C  0.93177554  0.25941312  0.33855562     0.36400
C1506       C  0.55609329  0.22972084  0.35411012     0.36300
N1507       N  0.90648074  0.26593046  0.33735532    -0.44000
N1508       N  0.58085974  0.22264316  0.35962363    -0.44000
C1509       C  0.94838836  0.99197460  0.47766588    -0.00400
C1510       C  0.95361222  0.01620417  0.50598855    -0.12200
C1511       C  0.97893094  0.00844592  0.52487767     0.01900
C1512       C  0.49805214  0.97348133  0.51685225    -0.00500
C1513       C  0.48913841  0.94439982  0.49246839    -0.12200
C1514       C  0.46414750  0.95319958  0.47313599     0.01800
H1515       H  0.94073617  0.04557955  0.50995594     0.14700
H1516       H  0.50248733  0.91590384  0.48726412     0.14700
C1517       C  0.45793783  0.92545597  0.44558633     0.36400
C1518       C  0.98503085  0.03867277  0.55089106     0.36300
N1519       N  0.45295017  0.90332591  0.42346394    -0.44000
N1520       N  0.98976387  0.06312197  0.57159724    -0.44000
C1521       C  0.88201764  0.16251077  0.46040085    -0.00400
C1522       C  0.85105289  0.16639323  0.45834318    -0.12200
C1523       C  0.83326827  0.16772901  0.48725521     0.01900
C1524       C  0.84627563  0.16357916  0.51944279    -0.00500
C1525       C  0.87724848  0.16521766  0.52138986    -0.12200
C1526       C  0.89503975  0.16541814  0.49258579     0.01800
H1527       H  0.84049974  0.16579190  0.43421401     0.14700
H1528       H  0.88781678  0.16358631  0.54553250     0.14700
C1529       C  0.92677643  0.16663366  0.49736698     0.36400
C1530       C  0.80160969  0.17228331  0.48284629     0.36300
N1531       N  0.95217131  0.16746237  0.50134577    -0.44000
N1532       N  0.77626863  0.17617595  0.47920134    -0.44000
C1533       C  0.64765158  0.66115638  0.97138986    -0.00400
C1534       C  0.61704316  0.66978030  0.96962643    -0.12200
C1535       C  0.59940481  0.67219786  0.99865380     0.01900
C1536       C  0.61196031  0.66424755  0.03069927    -0.00500
C1537       C  0.64292479  0.66098527  0.03262453    -0.12200
C1538       C  0.66072911  0.66015497  0.00374048     0.01800
H1539       H  0.60648524  0.67244794  0.94552763     0.14700
H1540       H  0.65325640  0.65614207  0.05670226     0.14700
C1541       C  0.69239808  0.65651839  0.00860320     0.36400
C1542       C  0.56818867  0.68175622  0.99458703     0.36300
N1543       N  0.71775178  0.65361290  0.01259947    -0.44000
N1544       N  0.54320092  0.68961037  0.99136929    -0.44000
C1545       C  0.99143078  0.47562110  0.97555324    -0.00400
C1546       C  0.51296556  0.50497181  0.96359918    -0.12200
C1547       C  0.53730880  0.51515375  0.98300798     0.01900
C1548       C  0.54018386  0.49608412  0.01476305    -0.00500
C1549       C  0.02065713  0.46354918  0.02527592    -0.12200
C1550       C  0.99599420  0.45371589  0.00620942     0.01800
H1551       H  0.51070130  0.52046248  0.93933838     0.14700
H1552       H  0.02247252  0.44972628  0.05018388     0.14700
C1553       C  0.97451938  0.42411826  0.02019643     0.36400
C1554       C  0.55815893  0.54710809  0.97092886     0.36300
N1555       N  0.95729056  0.40067759  0.03173651    -0.44000
N1556       N  0.57499946  0.57242995  0.96114731    -0.44000
C1557       C  0.57205351  0.51848027  0.21925754    -0.00400
C1558       C  0.54497259  0.50099091  0.23025878    -0.12200
C1559       C  0.54338937  0.47371127  0.25844661     0.01900
C1560       C  0.56933185  0.46255056  0.27635871    -0.00500
C1561       C  0.59656897  0.47948897  0.26524363    -0.12200
C1562       C  0.59812466  0.50708047  0.23691273     0.01800
H1563       H  0.52491555  0.50811196  0.21629666     0.14700
H1564       H  0.61649753  0.47252922  0.27945132     0.14700
C1565       C  0.62680239  0.52197304  0.22577051     0.36400
C1566       C  0.01456516  0.45790395  0.26866867     0.36300
N1567       N  0.64983119  0.53378780  0.21683636    -0.44000
N1568       N  0.99155903  0.44511848  0.27683281    -0.44000
C1569       C  0.92488116  0.97176101  0.21445797    -0.00400
C1570       C  0.95124303  0.98473315  0.22970530    -0.12200
C1571       C  0.95084216  0.01179469  0.25733776     0.01900
C1572       C  0.92362387  0.02709706  0.27047650    -0.00500
C1573       C  0.89722325  0.01512920  0.25481614    -0.12200
C1574       C  0.89766022  0.98805765  0.22696159     0.01800
H1575       H  0.97238552  0.97446912  0.21939183     0.14700
H1576       H  0.87613060  0.02572371  0.26504509     0.14700
C1577       C  0.86992638  0.97895882  0.21094071     0.36400
C1578       C  0.47890791  0.02412965  0.27166173     0.36300
N1579       N  0.84748211  0.97211754  0.19835884    -0.44000
N1580       N  0.50135270  0.03411700  0.28289379    -0.44000
C1581       C  0.98107778  0.78093949  0.15011982    -0.00400
C1582       C  0.96831388  0.73976836  0.15095631    -0.12200
C1583       C  0.98638264  0.70238189  0.15195618     0.01900
C1584       C  0.51764842  0.70572571  0.15089648    -0.00500
C1585       C  0.53015506  0.74651476  0.15514265    -0.12200
C1586       C  0.51212323  0.78388779  0.15498691     0.01800
H1587       H  0.94456718  0.73671838  0.14776862     0.14700
H1588       H  0.55408277  0.74967659  0.15526706     0.14700
C1589       C  0.52617249  0.82547675  0.15755212     0.36400
C1590       C  0.97236621  0.66052084  0.15192756     0.36300
N1591       N  0.53757310  0.85865486  0.16000728    -0.44000
N1592       N  0.96103050  0.62705038  0.15242512    -0.44000
C1593       C  0.52712096  0.01778271  0.97162521    -0.00400
C1594       C  0.00614094  0.98692605  0.96206485    -0.12200
C1595       C  0.98187231  0.97723997  0.98210579     0.01900
C1596       C  0.97867186  0.99743389  0.01280499    -0.00500
C1597       C  0.99820998  0.03028884  0.02162207    -0.12200
C1598       C  0.52254053  0.04066769  0.00125416     0.01800
H1599       H  0.00839638  0.97062854  0.93858151     0.14700
H1600       H  0.99623405  0.04487244  0.04583208     0.14700
C1601       C  0.54298950  0.07307032  0.01223623     0.36400
C1602       C  0.96112113  0.94500971  0.97153857     0.36300
N1603       N  0.55926192  0.09915515  0.02106507    -0.44000
N1604       N  0.94428826  0.91958580  0.96291944    -0.44000
C1605       C  0.86586328  0.83429552  0.96083866    -0.00400
C1606       C  0.85031406  0.83385548  0.99154082    -0.12200
C1607       C  0.86510670  0.83455555  0.02245961     0.01900
C1608       C  0.89646457  0.83573031  0.02362161    -0.00500
C1609       C  0.91187536  0.83163872  0.99306753    -0.12200
C1610       C  0.89713126  0.83108881  0.96221738     0.01800
H1611       H  0.82630248  0.83558934  0.99156304     0.14700
H1612       H  0.93592062  0.83104536  0.99296547     0.14700
C1613       C  0.91491091  0.82867887  0.93237124     0.36400
C1614       C  0.84730823  0.83666249  0.05230457     0.36300
N1615       N  0.92915321  0.82680222  0.90842809    -0.44000
N1616       N  0.83288578  0.83840626  0.07612410    -0.44000
C1617       C  0.86310673  0.33771494  0.02873007    -0.00400
C1618       C  0.84745754  0.34108948  0.99840644    -0.12200
C1619       C  0.86191065  0.34123481  0.96727510     0.01900
C1620       C  0.89322107  0.33756744  0.96525285    -0.00500
C1621       C  0.90872221  0.33107120  0.99554648    -0.01000
C1622       C  0.89416728  0.33129325  0.02679990     0.01800
H1623       H  0.82360402  0.34594745  0.99882047     0.14700
H1624       H  0.93267040  0.32767623  0.99508669     0.14700
C1625       C  0.91179038  0.32533346  0.05642309     0.36400
C1626       C  0.84374855  0.34697628  0.93802978     0.36300
N1627       N  0.92594996  0.32047462  0.08015355    -0.44000
N1628       N  0.82903521  0.35168011  0.91471583    -0.44000
C1629       C  0.76680181  0.47738063  0.01994774    -0.00400
C1630       C  0.75839377  0.44769259  0.99571600    -0.12200
C1631       C  0.73263527  0.45456579  0.97716956     0.01900
C1632       C  0.71531395  0.49188481  0.98258368    -0.00500
C1633       C  0.72043011  0.51647144  0.01071175    -0.12200
C1634       C  0.74670914  0.51120002  0.02834410     0.01800
H1635       H  0.77255204  0.42017671  0.99017591     0.14700
H1636       H  0.70659666  0.54477947  0.01513353     0.14700
C1637       C  0.75270664  0.54279076  0.05339723     0.36400
C1638       C  0.72657495  0.42628560  0.94990100     0.36300
N1639       N  0.75729132  0.56830130  0.07337298    -0.44000
N1640       N  0.72165959  0.40362690  0.92807509    -0.44000
C1641       C  0.91095302  0.47972676  0.11039541    -0.00400
C1642       C  0.91762441  0.51304616  0.08732106    -0.12200
C1643       C  0.94546842  0.53237984  0.08673535     0.01900
C1644       C  0.96728707  0.51865248  0.10975095    -0.00500
C1645       C  0.96093576  0.48543794  0.13270289    -0.12200
C1646       C  0.93312121  0.46600018  0.13341796     0.01800
H1647       H  0.90118636  0.52383617  0.06932800     0.14700
H1648       H  0.97781929  0.47468540  0.15022001     0.14700
C1649       C  0.92830245  0.43261591  0.15847671     0.36400
C1650       C  0.95159913  0.56446837  0.06103086     0.36300
N1651       N  0.92460642  0.40588559  0.17860203    -0.44000
N1652       N  0.95669930  0.59003153  0.04041931    -0.44000
C1653       C  0.72060992  0.48164920  0.11464728    -0.00400
C1654       C  0.69777705  0.46290263  0.09616312    -0.12200
C1655       C  0.66891509  0.47933694  0.09681474     0.01900
C1656       C  0.66206499  0.51533103  0.11657417    -0.00500
C1657       C  0.68451310  0.53364852  0.13569401    -0.12200
C1658       C  0.71352736  0.51707749  0.13515063     0.01800
H1659       H  0.70247290  0.43580089  0.08019566     0.14700
H1660       H  0.67931643  0.56085856  0.15138041     0.14700
C1661       C  0.73526372  0.53743979  0.15578900     0.36400
C1662       C  0.64727576  0.45970692  0.07557731     0.36300
N1663       N  0.75261968  0.55380353  0.17238470    -0.44000
N1664       N  0.63011415  0.44382864  0.05845943    -0.44000
C1665       C  0.78764228  0.01573973  0.10535409    -0.00400
C1666       C  0.81033137  0.03612348  0.08675784    -0.12200
C1667       C  0.83922575  0.01925983  0.08632277     0.01900
C1668       C  0.84598616  0.98155147  0.10519363    -0.00500
C1669       C  0.82336546  0.96093988  0.12337285    -0.12200
C1670       C  0.79450799  0.97732401  0.12360400     0.01800
H1671       H  0.80544619  0.06497609  0.07185270     0.14700
H1672       H  0.82825659  0.93170715  0.13784051     0.14700
C1673       C  0.77254690  0.95268813  0.14192393     0.36400
C1674       C  0.86093183  0.03977048  0.06485879     0.36300
N1675       N  0.75505971  0.93265109  0.15650522    -0.44000
N1676       N  0.87827715  0.05590963  0.04744203    -0.44000
C1677       C  0.59794301  0.00145553  0.11330709    -0.00400
C1678       C  0.57604916  0.01935397  0.13420360    -0.12200
C1679       C  0.54780424  0.00141586  0.13670916     0.01900
C1680       C  0.54089126  0.96489151  0.11791260    -0.00500
C1681       C  0.56320693  0.94518301  0.09885460    -0.12200
C1682       C  0.59148770  0.96297264  0.09632392     0.01800
H1683       H  0.58082974  0.04766513  0.14859575     0.14700
H1684       H  0.55814543  0.91704749  0.08437518     0.14700
C1685       C  0.61271509  0.94151588  0.07510304     0.36400
C1686       C  0.52650515  0.02096929  0.15894133     0.36300
N1687       N  0.62956570  0.92403325  0.05808127    -0.44000
N1688       N  0.50954320  0.03661669  0.17686031    -0.44000
C1689       C  0.73450839  0.20693703  0.13211150    -0.00400
C1690       C  0.71972369  0.24649067  0.13708899    -0.12200
C1691       C  0.73564313  0.28512867  0.14055673     0.01900
C1692       C  0.76717273  0.28484431  0.13925123    -0.00500
C1693       C  0.78185574  0.24466288  0.13851486    -0.12200
C1694       C  0.76597361  0.20605816  0.13485883     0.01800
H1695       H  0.69570757  0.24787951  0.13575525     0.14700
H1696       H  0.80590816  0.24363265  0.13777694     0.14700
C1697       C  0.78281598  0.16619702  0.13237915     0.36400
C1698       C  0.71898908  0.32514658  0.14330818     0.36300
N1699       N  0.79635388  0.13432911  0.13024780    -0.44000
N1700       N  0.70574151  0.35729283  0.14531132    -0.44000
C1701       C  0.64027187  0.14345304  0.01656272    -0.00400
C1702       C  0.63793393  0.18317231  0.99871356    -0.12200
C1703       C  0.62526575  0.18553621  0.96644601     0.01900
C1704       C  0.61613210  0.14742621  0.95066299    -0.00500
C1705       C  0.61960485  0.10787803  0.96802607    -0.12200
C1706       C  0.63082101  0.10563575  0.00054237     0.01800
H1707       H  0.64586407  0.21244719  0.01004910     0.14700
H1708       H  0.61296335  0.07820542  0.95624136     0.14700
C1709       C  0.63279425  0.06348735  0.01651650     0.36400
C1710       C  0.62221427  0.22714431  0.94987746     0.36300
N1711       N  0.63398814  0.02921973  0.02858859    -0.44000
N1712       N  0.61979249  0.26061083  0.93665997    -0.44000
C1713       C  0.73017929  0.00163927  0.01159243    -0.00400
C1714       C  0.75463854  0.97785328  0.02422750    -0.12200
C1715       C  0.77951912  0.97028430  0.00462291     0.01900
C1716       C  0.77981337  0.98584074  0.97167215    -0.00500
C1717       C  0.75539646  0.00957918  0.95905324    -0.12200
C1718       C  0.73047644  0.01701436  0.97855816     0.01800
H1719       H  0.75510273  0.96708829  0.05003146     0.14700
H1720       H  0.75509120  0.02066402  0.93333893     0.14700
C1721       C  0.70526958  0.03922246  0.96382466     0.36400
C1722       C  0.80494262  0.94849718  0.01919435     0.36300
N1723       N  0.68508379  0.05671880  0.95178433    -0.44000
N1724       N  0.82549390  0.93162345  0.03093827    -0.44000
C1725       C  0.85081853  0.65847316  0.46121495    -0.00400
C1726       C  0.83456372  0.66595822  0.49086634    -0.12200
C1727       C  0.84836606  0.66758955  0.52238190     0.01900
C1728       C  0.87946152  0.66242803  0.52528521    -0.00500
C1729       C  0.89585251  0.65841498  0.49539705    -0.12200
C1730       C  0.88210939  0.65604524  0.46402566     0.01800
H1731       H  0.81059361  0.66852138  0.48983505     0.14700
H1732       H  0.91975307  0.65453181  0.49650754     0.14700
C1733       C  0.90095315  0.64911378  0.43548539     0.36400
C1734       C  0.82989823  0.67378229  0.55132521     0.36300
N1735       N  0.91622104  0.64338772  0.41275738    -0.44000
N1736       N  0.81502726  0.67872129  0.57449413    -0.44000
C1737       C  0.76034590  0.51174802  0.47558231    -0.00400
C1738       C  0.73886769  0.48218983  0.46510385    -0.12200
C1739       C  0.71358833  0.47397799  0.48407748     0.01900
C1740       C  0.70975085  0.49496634  0.51449853    -0.00500
C1741       C  0.73088091  0.52531466  0.52451771    -0.12200
C1742       C  0.75617804  0.53335906  0.50567699     0.01800
H1743       H  0.74111737  0.46661600  0.44125464     0.14700
H1744       H  0.72871097  0.54108882  0.54829013     0.14700
C1745       C  0.77791188  0.56268891  0.51847955     0.36400
C1746       C  0.69167521  0.44486937  0.47137590     0.36300
N1747       N  0.79535652  0.58589435  0.52900861    -0.44000
N1748       N  0.67406189  0.42182643  0.46096758    -0.44000
C1749       C  0.95438768  0.46948684  0.37524716    -0.00400
C1750       C  0.93211889  0.44966431  0.39452306    -0.12200
C1751       C  0.90377150  0.46805914  0.39679733     0.01900
C1752       C  0.89709272  0.50676927  0.37882903    -0.00500
C1753       C  0.91943075  0.52592701  0.35896051    -0.12200
C1754       C  0.94781568  0.50783784  0.35714707     0.01800
H1755       H  0.93723887  0.42072478  0.40912646     0.14700
H1756       H  0.91487138  0.55524942  0.34460523     0.14700
C1757       C  0.96964963  0.52918151  0.33629852     0.36400
C1758       C  0.88262125  0.44702058  0.41865829     0.36300
N1759       N  0.98716905  0.54630966  0.31968809    -0.44000
N1760       N  0.86575194  0.43020849  0.43629461    -0.44000
C1761       C  0.65001264  0.47641167  0.38188876    -0.00400
C1762       C  0.65280805  0.52166278  0.38394738    -0.12200
C1763       C  0.68061077  0.54143361  0.38281878     0.01900
C1764       C  0.70652694  0.51584315  0.37944533    -0.00500
C1765       C  0.70386236  0.47084210  0.37712095    -0.12200
C1766       C  0.67617987  0.45093373  0.37845694     0.01800
H1767       H  0.63316319  0.54196717  0.38627778     0.14700
H1768       H  0.72369914  0.45079744  0.37517577     0.14700
C1769       C  0.67578068  0.40432546  0.37613924     0.36400
C1770       C  0.68172418  0.58810217  0.38414334     0.36300
N1771       N  0.67564801  0.36696958  0.37436262    -0.44000
N1772       N  0.68241500  0.62550666  0.38512288    -0.44000
C1773       C  0.82758948  0.47325920  0.21471396    -0.00400
C1774       C  0.80423971  0.46337860  0.23646875    -0.12200
C1775       C  0.79890144  0.48810414  0.26490791     0.01900
C1776       C  0.81745386  0.52349381  0.27273511    -0.00500
C1777       C  0.84067403  0.53371409  0.25080488    -0.12200
C1778       C  0.84577386  0.50929254  0.22207333     0.01800
H1779       H  0.78926417  0.43736149  0.23048615     0.14700
H1780       H  0.85558597  0.55982404  0.25673178     0.14700
C1781       C  0.87024355  0.52166047  0.20070264     0.36400
C1782       C  0.77357458  0.47691635  0.28533306     0.36300
N1783       N  0.88980940  0.53187311  0.18365145    -0.44000
N1784       N  0.75318561  0.46774396  0.30146820    -0.44000
C1785       C  0.77429167  0.98032449  0.37373678    -0.00400
C1786       C  0.79721846  0.96226019  0.39340235    -0.12200
C1787       C  0.82572424  0.97954508  0.39293159     0.01900
C1788       C  0.83195925  0.01627486  0.37273332    -0.00500
C1789       C  0.80933571  0.03436015  0.35287775    -0.12200
C1790       C  0.78086832  0.01645769  0.35274917     0.01800
H1791       H  0.79291448  0.93476087  0.40977633     0.14700
H1792       H  0.81410805  0.06195779  0.33678012     0.14700
C1793       C  0.75931778  0.03557797  0.33027383     0.36400
C1794       C  0.84782079  0.95950735  0.41430865     0.36300
N1795       N  0.74213909  0.05071136  0.31205936    -0.44000
N1796       N  0.86542884  0.94316724  0.43137371    -0.44000
C1797       C  0.58395446  0.98103559  0.37840123    -0.00400
C1798       C  0.57745706  0.01378863  0.40108939    -0.12200
C1799       C  0.54925983  0.03266203  0.40252062     0.01900
C1800       C  0.52675929  0.01833174  0.38119306    -0.00500
C1801       C  0.53296828  0.98558202  0.35870645    -0.12200
C1802       C  0.56125182  0.96724873  0.35667782     0.01800
H1803       H  0.59440202  0.02476798  0.41790470     0.14700
H1804       H  0.51567822  0.97469581  0.34225821     0.14700
C1805       C  0.56596484  0.93534587  0.33132981     0.36400
C1806       C  0.54386374  0.06549940  0.42696884     0.36300
N1807       N  0.56953671  0.91000257  0.31084548    -0.44000
N1808       N  0.53969223  0.09185807  0.44654054    -0.44000
C1809       C  0.66858452  0.97571489  0.27245935    -0.00400
C1810       C  0.64954498  0.01119452  0.26509066    -0.12200
C1811       C  0.65308049  0.03683710  0.23605176     0.01900
C1812       C  0.67671225  0.02822277  0.21406824    -0.00500
C1813       C  0.69610295  0.99320561  0.22195617    -0.12200
C1814       C  0.69205032  0.96685399  0.25042713     0.01800
H1815       H  0.63158389  0.01875025  0.28213924     0.14700
H1816       H  0.71407149  0.98537090  0.20498847     0.14700
C1817       C  0.71264464  0.93158950  0.25682141     0.36400
C1818       C  0.63108085  0.06972773  0.22839021     0.36300
N1819       N  0.72907572  0.90321076  0.26186776    -0.44000
N1820       N  0.61323857  0.09582976  0.22224498    -0.44000
C1821       C  0.72533969  0.78664370  0.34335079    -0.00400
C1822       C  0.75655076  0.78837126  0.34261212    -0.12200
C1823       C  0.77387894  0.75049595  0.34291811     0.01900
C1824       C  0.75990131  0.70984151  0.34368383    -0.00500
C1825       C  0.72897122  0.70835278  0.33914907    -0.12200
C1826       C  0.71160728  0.74628941  0.33887567     0.01800
H1827       H  0.76745569  0.81927678  0.34490454     0.14700
H1828       H  0.71807975  0.67725700  0.33867914     0.14700
C1829       C  0.67976551  0.74216922  0.33747246     0.36400
C1830       C  0.80556111  0.75450765  0.34669198     0.36300
N1831       N  0.65425565  0.73874867  0.33624680    -0.44000
N1832       N  0.83093695  0.75779137  0.34982090    -0.44000
C1833       C  0.62963241  0.83643224  0.45870146    -0.00400
C1834       C  0.64478118  0.82655829  0.48871763    -0.12200
C1835       C  0.63029419  0.82650988  0.51998189     0.01900
C1836       C  0.59954564  0.83566432  0.52221934    -0.00500
C1837       C  0.58408106  0.84274067  0.49210643    -0.12200
C1838       C  0.59856440  0.84369938  0.46095594     0.01800
H1839       H  0.66853022  0.82079968  0.48811571     0.14700
H1840       H  0.56054429  0.85027279  0.49286933     0.14700
C1841       C  0.58088385  0.85486849  0.43213771     0.36400
C1842       C  0.64779448  0.81773105  0.54933302     0.36300
N1843       N  0.56660295  0.86409827  0.40918725    -0.44000
N1844       N  0.66195632  0.81072218  0.57278344    -0.44000
C1845       C  0.72245146  0.97628594  0.47345599    -0.00400
C1846       C  0.74603459  0.00189112  0.46159162    -0.12200
C1847       C  0.76993326  0.01101681  0.48189273     0.01900
C1848       C  0.77034975  0.99457568  0.51461961    -0.00500
C1849       C  0.74813695  0.96616112  0.52569661    -0.12200
C1850       C  0.72384074  0.95763036  0.50562363     0.01800
H1851       H  0.74574907  0.01523620  0.43647425     0.14700
H1852       H  0.74782618  0.95509334  0.55147516     0.14700
C1853       C  0.69936676  0.93355487  0.51973966     0.36400
C1854       C  0.79263090  0.04009919  0.46972703     0.36300
N1855       N  0.67958027  0.91486885  0.53124790    -0.44000
N1856       N  0.81082465  0.06337103  0.46002346    -0.44000
loop_ 
_geom_bond_atom_site_label_1 
_geom_bond_atom_site_label_2 
_geom_bond_distance 
_geom_bond_site_symmetry_2 
_ccdc_geom_bond_type 
Fe1          O17   2.105       .  S
Fe1           O7   2.059       .  S
Fe1          O14   2.103       .  S
Fe1           O6   2.111       .  S
Fe1          O12   1.926       .  S
Fe2           O5   2.025       .  S
Fe2           O9   2.078       .  S
Fe2          O13   2.034       .  S
Fe2          O18   2.088       .  S
Fe2          O12   1.931       .  S
Fe3          O21   2.062       .  S
Fe3           O8   2.058       .  S
Fe3          O15   2.055       .  S
Fe3           O4   2.054       .  S
Fe3          O12   1.946       .  S
O4           C11   1.266       .  A
O5           C19   1.253       .  A
O6           C11   1.284       .  A
O7           C10   1.269       .  A
O8           C20   1.274       .  A
O9           C22   1.272       .  A
C10          O15   1.273       .  A
C10         C869   1.481       .  S
C11         C881   1.487       .  S
O13          C16   1.265       .  A
O14          C16   1.276       .  A
C16         C893   1.488       .  S
O17          C22   1.278       .  A
O18          C20   1.279       .  A
C19          O21   1.263       .  A
C19         C917   1.463       .  S
C20         C857   1.492       .  S
C22         C905   1.519       .  S
Fe23         O39   2.120       .  S
Fe23         O29   2.057       .  S
Fe23         O36   2.107       .  S
Fe23         O28   2.126       .  S
Fe23         O34   1.941       .  S
Fe24         O27   2.028       .  S
Fe24         O31   2.075       .  S
Fe24         O35   2.036       .  S
Fe24         O40   2.078       .  S
Fe24         O34   1.947       .  S
Fe25         O43   2.048       .  S
Fe25         O30   2.057       .  S
Fe25         O37   2.052       .  S
Fe25         O26   2.040       .  S
Fe25         O34   1.952       .  S
O26          C33   1.264       .  A
O27          C41   1.258       .  A
O28          C33   1.286       .  A
O29          C32   1.270       .  A
O30          C42   1.273       .  A
O31          C44   1.268       .  A
C32          O37   1.270       .  A
C32         C824   1.483       .  S
C33         C848   1.496       .  S
O35          C38   1.266       .  A
O36          C38   1.278       .  A
C38         C896   1.484       .  S
O39          C44   1.279       .  A
O40          C42   1.272       .  A
C41          O43   1.262       .  A
C41         C809   1.463       .  S
C42         C836   1.479       .  S
C44         C797   1.524       .  S
Fe45         O61   2.124       .  S
Fe45         O51   2.074       .  S
Fe45         O58   2.140       .  S
Fe45         O50   2.126       .  S
Fe45         O56   1.937       .  S
Fe46         O49   2.033       .  S
Fe46         O53   2.071       .  S
Fe46         O57   2.036       .  S
Fe46         O62   2.071       .  S
Fe46         O56   1.953       .  S
Fe47         O65   2.040   1_545  S
Fe47         O52   2.049       .  S
Fe47         O59   2.044       .  S
Fe47         O48   2.021       .  S
Fe47         O56   1.947       .  S
O48          C55   1.261       .  A
O49          C63   1.260       .  A
O50          C55   1.286       .  A
O51          C54   1.274       .  A
O52          C64   1.269       .  A
O53          C66   1.264       .  A
C54          O59   1.269       .  A
C54         C749   1.484       .  S
C55         C884   1.492       .  S
O57          C60   1.267       .  A
O58          C60   1.286       .  A
C60         C761   1.502       .  S
O61          C66   1.278       .  A
O62          C64   1.272       .  A
C63          O65   1.261   1_545  A
C63         C785   1.455       .  S
C64         C737   1.483       .  S
C66         C773   1.505       .  S
Fe67         O83   2.119       .  S
Fe67         O73   2.077       .  S
Fe67         O80   2.143       .  S
Fe67         O72   2.130       .  S
Fe67         O78   1.925       .  S
Fe68         O71   2.015       .  S
Fe68         O75   2.066       .  S
Fe68         O79   2.021       .  S
Fe68         O84   2.071       .  S
Fe68         O78   1.932       .  S
Fe69         O87   2.069       .  S
Fe69         O74   2.060       .  S
Fe69         O81   2.049       .  S
Fe69         O70   2.049       .  S
Fe69         O78   1.957       .  S
O70          C77   1.265       .  A
O71          C85   1.251       .  A
O72          C77   1.289       .  A
O73          C76   1.273       .  A
O74          C86   1.274       .  A
O75          C88   1.268       .  A
C76          O81   1.272       .  A
C76         C713   1.484       .  S
C77         C845   1.495       .  S
O79          C82   1.261       .  A
O80          C82   1.285       .  A
C82         C764   1.497       .  S
O83          C88   1.280       .  A
O84          C86   1.276       .  A
C85          O87   1.259       .  A
C85         C701   1.477       .  S
C86         C725   1.487       .  S
C88         C689   1.516       .  S
Fe89        O105   2.105       .  S
Fe89         O95   2.138       .  S
Fe89        O102   2.147       .  S
Fe89         O94   2.038       .  S
Fe89        O100   1.964       .  S
Fe90         O97   2.035       .  S
Fe90        O101   2.046       .  S
Fe90        O106   2.019       .  S
Fe90       O1021   2.043       .  S
Fe90        O100   1.960       .  S
Fe91         O96   2.045       .  S
Fe91        O103   2.029       .  S
Fe91         O92   2.061       .  S
Fe91       O1037   2.071       .  S
Fe91        O100   1.971       .  S
O92          C99   1.268       .  A
O93       Fe1018   2.043   1_455  S
O93         C107   1.270       .  A
O94          C99   1.265       .  A
O95          C98   1.287       .  A
O96         C108   1.260       .  A
O97         C110   1.259       .  A
C98         O103   1.263       .  A
C98         C641   1.490       .  S
C99         C740   1.474       .  S
O101        C104   1.269       .  A
O102        C104   1.289       .  A
C104        C680   1.520       .  S
O105        C110   1.271       .  A
O106        C108   1.258       .  A
C107        O109   1.273   1_455  A
C107        C752   1.473       .  S
C108        C668   1.448       .  S
O109      Fe1019   2.072       .  S
C110        C653   1.486       .  S
Fe111       O127   2.107       .  S
Fe111       O117   2.137       .  S
Fe111       O124   2.147       .  S
Fe111       O116   2.056       .  S
Fe111       O122   1.965       .  S
Fe112       O119   2.034       .  S
Fe112       O123   2.031       .  S
Fe112       O128   2.030       .  S
Fe112      O1043   2.035       .  S
Fe112       O122   1.960       .  S
Fe113       O118   2.044       .  S
Fe113       O125   2.026       .  S
Fe113       O114   2.050       .  S
Fe113      O1059   2.071       .  S
Fe113       O122   1.963       .  S
O114        C121   1.264       .  A
O115      Fe1040   2.035       .  S
O115        C129   1.265       .  A
O116        C121   1.266       .  A
O117        C120   1.288       .  A
O118        C130   1.261       .  A
O119        C132   1.259       .  A
C120        O125   1.265       .  A
C120        C629   1.487       .  S
C121        C728   1.476       .  S
O123        C126   1.264       .  A
O124        C126   1.289       .  A
C126        C608   1.511       .  S
O127        C132   1.272       .  A
O128        C130   1.262       .  A
C129        O131   1.270       .  A
C129        C716   1.466       .  S
C130        C620   1.447       .  S
O131      Fe1041   2.071       .  S
C132        C656   1.486       .  S
Fe133       O149   2.110       .  S
Fe133       O139   2.143       .  S
Fe133       O146   2.151       .  S
Fe133       O138   2.067       .  S
Fe133       O144   1.961       .  S
Fe134       O141   2.023       .  S
Fe134       O145   2.017       .  S
Fe134       O150   2.027       .  S
Fe134      O1065   2.029       .  S
Fe134       O144   1.952       .  S
Fe135       O140   2.044       .  S
Fe135       O147   2.028       .  S
Fe135       O136   2.053       .  S
Fe135      O1081   2.076       .  S
Fe135       O144   1.959       .  S
O136        C143   1.265       .  A
O137      Fe1062   2.028       .  S
O137        C151   1.262       .  A
O138        C143   1.268       .  A
O139        C142   1.289       .  A
O140        C152   1.261       .  A
O141        C154   1.258       .  A
C142        O147   1.266       .  A
C142        C644   1.489       .  S
C143        C860   1.480       .  S
O145        C148   1.262       .  A
O146        C148   1.290       .  A
C148        C593   1.510       .  S
O149        C154   1.274       .  A
O150        C152   1.263       .  A
C151        O153   1.271       .  A
C151        C872   1.465   1_655  S
C152        C581   1.452   1_545  S
O153      Fe1063   2.076       .  S
C154        C569   1.484       .  S
Fe155       O171   2.101       .  S
Fe155       O161   2.142       .  S
Fe155       O168   2.145       .  S
Fe155       O160   2.051       .  S
Fe155       O166   1.947       .  S
Fe156       O163   2.040       .  S
Fe156       O167   2.031       .  S
Fe156       O172   2.030       .  S
Fe156      O1087   2.039   1_455  S
Fe156       O166   1.947       .  S
Fe157       O162   2.042       .  S
Fe157       O169   2.018       .  S
Fe157       O158   2.068       .  S
Fe157      O1103   2.074       .  S
Fe157       O166   1.954       .  S
O158        C165   1.268       .  A
O159      Fe1084   2.040       .  S
O159        C173   1.267       .  A
O160        C165   1.264       .  A
O161        C164   1.289       .  A
O162        C174   1.262       .  A
O163        C176   1.261       .  A
C164        O169   1.264       .  A
C164        C632   1.483       .  S
C165        C833   1.491       .  S
O167        C170   1.265       .  A
O168        C170   1.290       .  A
C170        C557   1.513       .  S
O171        C176   1.272       .  A
O172        C174   1.264       .  A
C173        O175   1.271       .  A
C173        C821   1.470       .  S
C174        C545   1.446       .  S
O175      Fe1085   2.074       .  S
C176        C572   1.484       .  S
Fe177       O193   2.115       .  S
Fe177       O183   2.142       .  S
Fe177       O190   2.140       .  S
Fe177       O182   2.067       .  S
Fe177       O188   1.965       .  S
Fe178       O181   2.047       .  S
Fe178       O185   2.042       .  S
Fe178       O189   2.032       .  S
Fe178       O194   2.028       .  S
Fe178       O188   1.960       .  S
Fe179       O197   2.081       .  S
Fe179       O184   2.043       .  S
Fe179       O191   2.021       .  S
Fe179       O180   2.076       .  S
Fe179       O188   1.958       .  S
O180        C187   1.269       .  A
O181        C195   1.267       .  A
O182        C187   1.269       .  A
O183        C186   1.288       .  A
O184        C196   1.263       .  A
O185        C198   1.262       .  A
C186        O191   1.265       .  A
C186        C521   1.504       .  S
C187        C500   1.488       .  S
O189        C192   1.264       .  A
O190        C192   1.288       .  A
C192        C596   1.509       .  S
O193        C198   1.277       .  A
O194        C196   1.262       .  A
C195        O197   1.272       .  A
C195        C509   1.471       .  S
C196        C920   1.444   1_545  S
C198        C536   1.492       .  S
Fe199       O215   2.133       .  S
Fe199       O205   2.120       .  S
Fe199       O212   2.116       .  S
Fe199       O204   2.087       .  S
Fe199       O210   1.932       .  S
Fe200       O203   2.061       .  S
Fe200       O207   2.038       .  S
Fe200       O211   2.061       .  S
Fe200       O216   2.037       .  S
Fe200       O210   1.938       .  S
Fe201       O219   2.067       .  S
Fe201       O206   2.048       .  S
Fe201       O213   2.053       .  S
Fe201       O202   2.039       .  S
Fe201       O210   1.949       .  S
O202        C209   1.268       .  A
O203        C217   1.271       .  A
O204        C209   1.275       .  A
O205        C208   1.285       .  A
O206        C218   1.263       .  A
O207        C220   1.266       .  A
C208        O213   1.266       .  A
C208        C485   1.489       .  S
C209        C476   1.478       .  S
O211        C214   1.263       .  A
O212        C214   1.279       .  A
C214        C560   1.514       .  S
O215        C220   1.284       .  A
O216        C218   1.260       .  A
C217        O219   1.275       .  A
C217        C461   1.483       .  S
C218        C812   1.465       .  S
C220        C533   1.498       .  S
Fe221       O237   2.126       .  S
Fe221       O227   2.116       .  S
Fe221       O234   2.115       .  S
Fe221       O226   2.088       .  S
Fe221       O232   1.931       .  S
Fe222       O225   2.067       .  S
Fe222       O229   2.041       .  S
Fe222       O233   2.067       .  S
Fe222       O238   2.034       .  S
Fe222       O232   1.941       .  S
Fe223       O241   2.078       .  S
Fe223       O228   2.042       .  S
Fe223       O235   2.044       .  S
Fe223       O224   2.056       .  S
Fe223       O232   1.950       .  S
O224        C231   1.272       .  A
O225        C239   1.272       .  A
O226        C231   1.275       .  A
O227        C230   1.284       .  A
O228        C240   1.260       .  A
O229        C242   1.266       .  A
C230        O235   1.263       .  A
C230        C524   1.485       .  S
C231        C425   1.484       .  S
O233        C236   1.267       .  A
O234        C236   1.279       .  A
C236        C677   1.517       .  S
O237        C242   1.282       .  A
O238        C240   1.258       .  A
C239        O241   1.278       .  A
C239        C440   1.486       .  S
C240        C788   1.454       .  S
C242        C449   1.497       .  S
Fe243       O259   2.104       .  S
Fe243       O249   2.154       .  S
Fe243       O256   2.155       .  S
Fe243       O248   2.051       .  S
Fe243       O254   1.950       .  S
Fe244       O247   2.044       .  S
Fe244       O251   2.038       .  S
Fe244       O255   2.031       .  S
Fe244       O260   2.036       .  S
Fe244       O254   1.941       .  S
Fe245       O263   2.089       .  S
Fe245       O250   2.045       .  S
Fe245       O257   2.024       .  S
Fe245       O246   2.068       .  S
Fe245       O254   1.957       .  S
O246        C253   1.268       .  A
O247        C261   1.264       .  A
O248        C253   1.264       .  A
O249        C252   1.293       .  A
O250        C262   1.263       .  A
O251        C264   1.261       .  A
C252        O257   1.266       .  A
C252        C488   1.505       .  S
C253        C416   1.486       .  S
O255        C258   1.264       .  A
O256        C258   1.291       .  A
C258        C605   1.519       .  S
O259        C264   1.273       .  A
O260        C262   1.267       .  A
C261        O263   1.271       .  A
C261        C401   1.464       .  S
C262        C704   1.451       .  S
C264        C452   1.486       .  S
Fe265       O281   2.109       .  S
Fe265       O271   2.078       .  S
Fe265       O278   2.140       .  S
Fe265       O270   2.112       .  S
Fe265       O276   1.945       .  S
Fe266       O269   2.014       .  S
Fe266       O273   2.073       .  S
Fe266       O277   2.023       .  S
Fe266      O1210   2.085   1_455  S
Fe266       O276   1.941       .  S
Fe267       O285   2.057       .  S
Fe267       O279   2.066       .  S
Fe267       O268   2.030       .  S
Fe267      O1200   2.072       .  S
Fe267       O276   1.960       .  S
O268        C275   1.261       .  A
O269        C283   1.253       .  A
O270        C275   1.285       .  A
O271        C274   1.274       .  A
O272      Fe1195   2.072       .  S
O272        C284   1.276       .  A
O273        C286   1.270       .  A
C274        O279   1.274       .  A
C274        C512   1.486       .  S
C275        C377   1.492       .  S
O277        C280   1.262       .  A
O278        C280   1.284       .  A
C280        C392   1.496       .  S
O281        C286   1.277       .  A
O282      Fe1194   2.086       .  S
O282        C284   1.277       .  A
C283        O285   1.258       .  A
C283        C584   1.474   1_455  S
C284        C497   1.499       .  S
C286        C908   1.515       .  S
Fe287       O303   2.128       .  S
Fe287       O293   2.074       .  S
Fe287       O300   2.132       .  S
Fe287       O292   2.130       .  S
Fe287       O298   1.928       .  S
Fe288       O291   2.025       .  S
Fe288       O295   2.064       .  S
Fe288       O299   2.030       .  S
Fe288      O1232   2.059       .  S
Fe288       O298   1.939       .  S
Fe289       O307   2.048       .  S
Fe289       O301   2.055       .  S
Fe289       O290   2.041       .  S
Fe289      O1222   2.073       .  S
Fe289       O298   1.950       .  S
O290        C297   1.261       .  A
O291        C305   1.256       .  A
O292        C297   1.288       .  A
O293        C296   1.273       .  A
O294      Fe1217   2.073       .  S
O294        C306   1.277       .  A
O295        C308   1.268       .  A
C296        O301   1.272       .  A
C296        C464   1.480       .  S
C297        C365   1.509       .  S
O299        C302   1.262       .  A
O300        C302   1.282       .  A
C302        C389   1.497       .  S
O303        C308   1.281       .  A
O304      Fe1216   2.058       .  S
O304        C306   1.273       .  A
C305        O307   1.258       .  A
C305        C548   1.470       .  S
C306        C473   1.480   1_655  S
C308        C800   1.520       .  S
Fe309       O325   2.108       .  S
Fe309       O315   2.077       .  S
Fe309       O322   2.132       .  S
Fe309       O314   2.117       .  S
Fe309       O320   1.930       .  S
Fe310       O313   2.021       .  S
Fe310       O317   2.084       .  S
Fe310       O321   2.032       .  S
Fe310      O1254   2.083       .  S
Fe310       O320   1.932       .  S
Fe311       O329   2.056       .  S
Fe311       O323   2.066       .  S
Fe311       O312   2.040       .  S
Fe311      O1244   2.077       .  S
Fe311       O320   1.941       .  S
O312        C319   1.263       .  A
O313        C327   1.254       .  A
O314        C319   1.288       .  A
O315        C318   1.272       .  A
O316      Fe1239   2.077       .  S
O316        C328   1.278       .  A
O317        C330   1.270       .  A
C318        O323   1.275       .  A
C318        C437   1.485       .  S
C319        C380   1.494       .  S
O321        C324   1.263       .  A
O322        C324   1.281       .  A
C324        C353   1.497       .  S
O325        C330   1.277       .  A
O326      Fe1238   2.083       .  S
O326        C328   1.278       .  A
C327        O329   1.263       .  A
C327        C665   1.466       .  S
C328        C428   1.489       .  S
C330        C776   1.500       .  S
Fe331       O347   2.107       .  S
Fe331       O337   2.075       .  S
Fe331       O344   2.132       .  S
Fe331       O336   2.117       .  S
Fe331       O342   1.941       .  S
Fe332       O335   2.024       .  S
Fe332       O339   2.073       .  S
Fe332       O343   2.035       .  S
Fe332      O1276   2.077       .  S
Fe332       O342   1.945       .  S
Fe333       O351   2.059       .  S
Fe333       O345   2.064       .  S
Fe333       O334   2.046       .  S
Fe333      O1266   2.061       .  S
Fe333       O342   1.953       .  S
O334        C341   1.264       .  A
O335        C349   1.254       .  A
O336        C341   1.286       .  A
O337        C340   1.272       .  A
O338      Fe1261   2.061       .  S
O338        C350   1.276   1_655  A
O339        C352   1.269       .  A
C340        O345   1.273       .  A
C340        C404   1.465       .  S
C341        C368   1.508       .  S
O343        C346   1.265       .  A
O344        C346   1.283       .  A
C346        C356   1.498       .  S
O347        C352   1.277       .  A
O348      Fe1260   2.077   1_455  S
O348        C350   1.275       .  A
C349        O351   1.262       .  A
C349        C617   1.469       .  S
C350        C413   1.485       .  S
C352        C692   1.519       .  S
C353        C358   1.412       .  A
C353       C1282   1.412   1_455  A
C354        C355   1.407       .  A
C354       C1281   1.412       .  A
C354        H359   1.086       .  S
C355        C356   1.412       .  A
C355        C362   1.443       .  S
C356       C1285   1.412       .  A
C357        C358   1.406       .  A
C357       C1284   1.412   1_455  A
C357        H360   1.085       .  S
C358        C361   1.444       .  S
C361        N363   1.157       .  T
C362        N364   1.157       .  T
C365        C366   1.398       .  A
C365        C370   1.435       .  A
C366        C367   1.407       .  A
C366        H371   1.083       .  S
C367        C368   1.432       .  A
C367        C374   1.445       .  S
C368        C369   1.397       .  A
C369        C370   1.406       .  A
C369        H372   1.083       .  S
C370        C373   1.446       .  S
C373        N375   1.158       .  T
C374        N376   1.157       .  T
C377        C378   1.394       .  A
C377        C382   1.429   1_565  A
C378        C379   1.402       .  A
C378        H383   1.085       .  S
C379        C380   1.432   1_565  A
C379        C386   1.446       .  S
C380        C381   1.396       .  A
C381        C382   1.402       .  A
C381        H384   1.085       .  S
C382        C385   1.446       .  S
C385        N387   1.158       .  T
C386        N388   1.158       .  T
C389        C390   1.401       .  A
C389       C1322   1.422       .  A
C390        C391   1.406       .  A
C390        H395   1.084       .  S
C391       C1320   1.422       .  A
C391        C398   1.445       .  S
C392        C393   1.402       .  A
C392       C1319   1.421   1_455  A
C393        C394   1.408       .  A
C393        H396   1.084       .  S
C394       C1317   1.422   1_455  A
C394        C397   1.446       .  S
C397        N399   1.158       .  T
C398        N400   1.157       .  T
C401        C402   1.404       .  A
C401        C406   1.406       .  A
C402        C403   1.399       .  A
C402        H407   1.085       .  S
C403        C404   1.407       .  A
C403        C410   1.444       .  S
C404        C405   1.405       .  A
C405        C406   1.398       .  A
C405        H408   1.085       .  S
C406        C409   1.444       .  S
C409        N411   1.157       .  T
C410        N412   1.157       .  T
C413        C414   1.405       .  A
C413        C418   1.417       .  A
C414        C415   1.399       .  A
C414        H419   1.084       .  S
C415        C416   1.417       .  A
C415        C422   1.445       .  S
C416        C417   1.405       .  A
C417        C418   1.398       .  A
C417        H420   1.084       .  S
C418        C421   1.445       .  S
C421        N423   1.157       .  T
C422        N424   1.157       .  T
C425        C426   1.407       .  A
C425        C430   1.411   1_565  A
C426        C427   1.403       .  A
C426        H431   1.086       .  S
C427        C428   1.413   1_565  A
C427        C434   1.443       .  S
C428        C429   1.408       .  A
C429        C430   1.398       .  A
C429        H432   1.085       .  S
C430        C433   1.445       .  S
C433        N435   1.157       .  T
C434        N436   1.157       .  T
C437        C438   1.401   1_545  A
C437        C442   1.419       .  A
C438        C439   1.398       .  A
C438        H443   1.085       .  S
C439        C440   1.419       .  A
C439        C446   1.445       .  S
C440        C441   1.402   1_565  A
C441        C442   1.401       .  A
C441        H444   1.085       .  S
C442        C445   1.445       .  S
C445        N447   1.157       .  T
C446        N448   1.157       .  T
C449        C450   1.413       .  A
C449        C454   1.413       .  A
C450        C451   1.407       .  A
C450        H455   1.086       .  S
C451        C452   1.408       .  A
C451        C458   1.443       .  S
C452        C453   1.408       .  A
C453        C454   1.404       .  A
C453        H456   1.087       .  S
C454        C457   1.443       .  S
C457        N459   1.157       .  T
C458        N460   1.157       .  T
C461        C462   1.411       .  A
C461        C466   1.410       .  A
C462        C463   1.396       .  A
C462        H467   1.083       .  S
C463        C464   1.410       .  A
C463        C470   1.446       .  S
C464        C465   1.409       .  A
C465        C466   1.398       .  A
C465        H468   1.083       .  S
C466        C469   1.444       .  S
C469        N471   1.157       .  T
C470        N472   1.158       .  T
C473        C474   1.407       .  A
C473        C478   1.411       .  A
C474        C475   1.391       .  A
C474        H479   1.084       .  S
C475        C476   1.412       .  A
C475        C482   1.446       .  S
C476        C477   1.408       .  A
C477        C478   1.402       .  A
C477        H480   1.083       .  S
C478        C481   1.444       .  S
C481        N483   1.157   1_455  T
C482        N484   1.158       .  T
C485        C486   1.398       .  A
C485        C490   1.418       .  A
C486        C487   1.406       .  A
C486        H491   1.085       .  S
C487        C488   1.428       .  A
C487        C494   1.445       .  S
C488        C489   1.405       .  A
C489        C490   1.409       .  A
C489        H492   1.084       .  S
C490        C493   1.444       .  S
C493        N495   1.157       .  T
C494        N496   1.157       .  T
C497        C498   1.410       .  A
C497        C502   1.419   1_565  A
C498        C499   1.400       .  A
C498        H503   1.086       .  S
C499        C500   1.411   1_565  A
C499        C506   1.444       .  S
C500        C501   1.406       .  A
C501        C502   1.405       .  A
C501        H504   1.086       .  S
C502        C505   1.444       .  S
C505        N507   1.158       .  T
C506        N508   1.157       .  T
C509        C510   1.404       .  A
C509        C514   1.404   1_545  A
C510        C511   1.402       .  A
C510        H515   1.085       .  S
C511        C512   1.413   1_545  A
C511        C518   1.443       .  S
C512        C513   1.410       .  A
C513        C514   1.398       .  A
C513        H516   1.085       .  S
C514        C517   1.444       .  S
C517        N519   1.157       .  T
C518        N520   1.157       .  T
C521        C522   1.418   1_545  A
C521        C526   1.415       .  A
C522        C523   1.403       .  A
C522        H527   1.083       .  S
C523        C524   1.403       .  A
C523        C530   1.444       .  S
C524        C525   1.412   1_565  A
C525        C526   1.409       .  A
C525        H528   1.085       .  S
C526        C529   1.443       .  S
C529        N531   1.157       .  T
C530        N532   1.157       .  T
C533        C534   1.403       .  A
C533        C538   1.421       .  A
C534        C535   1.406       .  A
C534        H539   1.084       .  S
C535        C536   1.417       .  A
C535        C542   1.445       .  S
C536        C537   1.402       .  A
C537        C538   1.409       .  A
C537        H540   1.084       .  S
C538        C541   1.445       .  S
C541        N543   1.157       .  T
C542        N544   1.157       .  T
C545        C550   1.408       .  A
C545       C1474   1.395       .  A
C546        C547   1.388       .  A
C546       C1473   1.395       .  A
C546        H551   1.081       .  S
C547        C548   1.422       .  A
C547        C554   1.446       .  S
C548       C1477   1.405       .  A
C549        C550   1.395   1_655  A
C549       C1476   1.405       .  A
C549        H552   1.079       .  S
C550        C553   1.445       .  S
C553        N555   1.157       .  T
C554        N556   1.158       .  T
C557        C558   1.403       .  A
C557        C562   1.428       .  A
C558        C559   1.410       .  A
C558        H563   1.083       .  S
C559        C560   1.428       .  A
C559        C566   1.444       .  S
C560        C561   1.404       .  A
C561        C562   1.409       .  A
C561        H564   1.083       .  S
C562        C565   1.445       .  S
C565        N567   1.158       .  T
C566        N568   1.157       .  T
C569        C574   1.407       .  A
C569       C1498   1.411       .  A
C570        C571   1.405       .  A
C570       C1497   1.411   1_455  A
C570        H575   1.084       .  S
C571        C572   1.407       .  A
C571        C578   1.444       .  S
C572       C1501   1.410   1_455  A
C573        C574   1.406       .  A
C573       C1500   1.410       .  A
C573        H576   1.084       .  S
C574        C577   1.443       .  S
C577        N579   1.157       .  T
C578        N580   1.157       .  T
C581        C582   1.398   1_565  A
C581       C1514   1.406       .  A
C582        C583   1.391       .  A
C582        H587   1.086       .  S
C583       C1512   1.420   1_545  A
C583        C590   1.445       .  S
C584        C585   1.406       .  A
C584       C1511   1.420   1_565  A
C585        C586   1.394       .  A
C585        H588   1.085   1_655  S
C586       C1509   1.406       .  A
C586        C589   1.445       .  S
C589        N591   1.157       .  T
C590        N592   1.157       .  T
C593        C594   1.403       .  A
C593        C598   1.429       .  A
C594        C595   1.411       .  A
C594        H599   1.084       .  S
C595        C596   1.427       .  A
C595        C602   1.444       .  S
C596        C597   1.400       .  A
C597        C598   1.406       .  A
C597        H600   1.084       .  S
C598        C601   1.446       .  S
C601        N603   1.157       .  T
C602        N604   1.157       .  T
C605        C606   1.405       .  A
C605        C610   1.431   1_556  A
C606        C607   1.413       .  A
C606        H611   1.083       .  S
C607        C608   1.426   1_556  A
C607        C614   1.445       .  S
C608        C609   1.401       .  A
C609        C610   1.410       .  A
C609        H612   1.084       .  S
C610        C613   1.445       .  S
C613        N615   1.157       .  T
C614        N616   1.157       .  T
C617        C622   1.410   1_556  A
C617       C1546   1.410       .  A
C618        C619   1.392       .  A
C618       C1545   1.410   1_455  A
C618        H623   1.083       .  S
C619        C620   1.402   1_556  A
C619        C626   1.445       .  S
C620       C1549   1.401       .  A
C621        C622   1.393       .  A
C621       C1548   1.401       .  A
C621        H624   1.085       .  S
C622        C625   1.443       .  S
C625        N627   1.156       .  T
C626        N628   1.157       .  T
C629        C630   1.406       .  A
C629        C634   1.414       .  A
C630        C631   1.401       .  A
C630        H635   1.085       .  S
C631        C632   1.413       .  A
C631       C1566   1.445       .  S
C632        C633   1.407       .  A
C633        C634   1.411       .  A
C633        H636   1.085       .  S
C634        C637   1.443       .  S
C637        N639   1.157       .  T
C638       C1559   1.445       .  S
C638        N640   1.157       .  T
C641        C642   1.406       .  A
C641        C646   1.416       .  A
C642        C643   1.404   1_565  A
C642        H647   1.085       .  S
C643        C644   1.415       .  A
C643       C1578   1.445       .  S
C644        C645   1.406       .  A
C645        C646   1.412   1_545  A
C645        H648   1.085       .  S
C646        C649   1.442       .  S
C649        N651   1.157       .  T
C650       C1571   1.445       .  S
C650        N652   1.157   1_655  T
C653        C654   1.401       .  A
C653       C1586   1.417       .  A
C654        C655   1.407       .  A
C654        H659   1.084       .  S
C655       C1584   1.418       .  A
C655        C662   1.445       .  S
C656        C657   1.399       .  A
C656       C1583   1.418   1_455  A
C657        C658   1.405       .  A
C657        H660   1.084       .  S
C658       C1581   1.417   1_455  A
C658        C661   1.443       .  S
C661        N663   1.157       .  T
C662        N664   1.157       .  T
C665        C670   1.411   1_556  A
C665       C1594   1.407   1_545  A
C666        C667   1.388       .  A
C666       C1593   1.407   1_565  A
C666        H671   1.083       .  S
C667        C668   1.401   1_556  A
C667        C674   1.444       .  S
C668        C669   1.402   1_565  A
C669       C1598   1.396       .  A
C669        H672   1.084       .  S
C670       C1597   1.396   1_455  A
C670        C673   1.444       .  S
C673        N675   1.157       .  T
C674        N676   1.157       .  T
C677        C678   1.417       .  A
C677        C682   1.414       .  A
C678        C679   1.415   1_556  A
C678        H683   1.083       .  S
C679        C680   1.416       .  A
C679        C686   1.443       .  S
C680        C681   1.417   1_554  A
C681        C682   1.411       .  A
C681        H684   1.084       .  S
C682        C685   1.444       .  S
C685        N687   1.157       .  T
C686        N688   1.157       .  T
C689        C690   1.414   1_554  A
C689        C694   1.414       .  A
C690        C691   1.409       .  A
C690        H695   1.085       .  S
C691        C692   1.417       .  A
C691        C698   1.444       .  S
C692        C693   1.418       .  A
C693        C694   1.416   1_556  A
C693        H696   1.084       .  S
C694        C697   1.443       .  S
C697        N699   1.157       .  T
C698        N700   1.157       .  T
C701        C702   1.408   1_554  A
C701        C706   1.421       .  A
C702        C703   1.396       .  A
C702        H707   1.084       .  S
C703        C704   1.406       .  A
C703        C710   1.445       .  S
C704        C705   1.397   1_556  A
C705        C706   1.390       .  A
C705        H708   1.086       .  S
C706        C709   1.445       .  S
C709        N711   1.157       .  T
C710        N712   1.157       .  T
C713        C714   1.406       .  A
C713        C718   1.422       .  A
C714        C715   1.395       .  A
C714        H719   1.084       .  S
C715        C716   1.410       .  A
C715        C722   1.446       .  S
C716        C717   1.397       .  A
C717        C718   1.396       .  A
C717        H720   1.085       .  S
C718        C721   1.445       .  S
C721        N723   1.157       .  T
C722        N724   1.157       .  T
C725        C726   1.409       .  A
C725        C730   1.417       .  A
C726        C727   1.392       .  A
C726        H731   1.084       .  S
C727        C728   1.410       .  A
C727        C734   1.446       .  S
C728        C729   1.404       .  A
C729        C730   1.400       .  A
C729        H732   1.084       .  S
C730        C733   1.444       .  S
C733        N735   1.158       .  T
C734        N736   1.157       .  T
C737        C738   1.411       .  A
C737        C742   1.415   1_545  A
C738        C739   1.398       .  A
C738        H743   1.085       .  S
C739        C740   1.409   1_545  A
C739        C746   1.445       .  S
C740        C741   1.403       .  A
C741        C742   1.391       .  A
C741        H744   1.086       .  S
C742        C745   1.445       .  S
C745        N747   1.157       .  T
C746        N748   1.157       .  T
C749        C750   1.410       .  A
C749        C754   1.416   1_545  A
C750        C751   1.396       .  A
C750        H755   1.082       .  S
C751        C752   1.409   1_545  A
C751        C758   1.445       .  S
C752        C753   1.403       .  A
C753        C754   1.396       .  A
C753        H756   1.083       .  S
C754        C757   1.445       .  S
C757        N759   1.157       .  T
C758        N760   1.157       .  T
C761        C762   1.403       .  A
C761        C766   1.423       .  A
C762        C763   1.408       .  A
C762        H767   1.085       .  S
C763        C764   1.422       .  A
C763        C770   1.446       .  S
C764        C765   1.401       .  A
C765        C766   1.407       .  A
C765        H768   1.085       .  S
C766        C769   1.445       .  S
C769        N771   1.157       .  T
C770        N772   1.158       .  T
C773        C774   1.412   1_554  A
C773        C778   1.415       .  A
C774        C775   1.421       .  A
C774        H779   1.085   1_556  S
C775        C776   1.414       .  A
C775        C782   1.441       .  S
C776        C777   1.403       .  A
C777        C778   1.405   1_556  A
C777        H780   1.086       .  S
C778        C781   1.442       .  S
C781        N783   1.156       .  T
C782        N784   1.157       .  T
C785        C786   1.410   1_545  A
C785        C790   1.402   1_554  A
C786        C787   1.389       .  A
C786        H791   1.084       .  S
C787        C788   1.401   1_554  A
C787        C794   1.444       .  S
C788        C789   1.408   1_565  A
C789        C790   1.387       .  A
C789        H792   1.083       .  S
C790        C793   1.445       .  S
C793        N795   1.157       .  T
C794        N796   1.157       .  T
C797        C798   1.419       .  A
C797        C802   1.417       .  A
C798        C799   1.417       .  A
C798        H803   1.084       .  S
C799        C800   1.415       .  A
C799        C806   1.443       .  S
C800        C801   1.416       .  A
C801        C802   1.412       .  A
C801        H804   1.084       .  S
C802        C805   1.443       .  S
C805        N807   1.157       .  T
C806        N808   1.157       .  T
C809        C810   1.409       .  A
C809        C814   1.405       .  A
C810        C811   1.391       .  A
C810        H815   1.086       .  S
C811        C812   1.406       .  A
C811        C818   1.444       .  S
C812        C813   1.409       .  A
C813        C814   1.388       .  A
C813        H816   1.086       .  S
C814        C817   1.445       .  S
C817        N819   1.157       .  T
C818        N820   1.157       .  T
C821        C822   1.404       .  A
C821        C826   1.408       .  A
C822        C823   1.397       .  A
C822        H827   1.083       .  S
C823        C824   1.415       .  A
C823        C830   1.445       .  S
C824        C825   1.410       .  A
C825        C826   1.394       .  A
C825        H828   1.083       .  S
C826        C829   1.446       .  S
C829        N831   1.157       .  T
C830        N832   1.157       .  T
C833        C834   1.409       .  A
C833        C838   1.419       .  A
C834        C835   1.400       .  A
C834        H839   1.085       .  S
C835        C836   1.412       .  A
C835        C842   1.445       .  S
C836        C837   1.401       .  A
C837        C838   1.397       .  A
C837        H840   1.086       .  S
C838        C841   1.445       .  S
C841        N843   1.157       .  T
C842        N844   1.157       .  T
C845        C846   1.398       .  A
C845        C850   1.425       .  A
C846        C847   1.407       .  A
C846        H851   1.086       .  S
C847        C848   1.424       .  A
C847        C854   1.444       .  S
C848        C849   1.400       .  A
C849        C850   1.410       .  A
C849        H852   1.086       .  S
C850        C853   1.445       .  S
C853        N855   1.157       .  T
C854        N856   1.157       .  T
C857        C858   1.409       .  A
C857        C862   1.419   1_565  A
C858        C859   1.397       .  A
C858        H863   1.083       .  S
C859        C860   1.412   1_565  A
C859        C866   1.446       .  S
C860        C861   1.403       .  A
C861        C862   1.403       .  A
C861        H864   1.083       .  S
C862        C865   1.444       .  S
C865        N867   1.157       .  T
C866        N868   1.157       .  T
C869        C870   1.404   1_565  A
C869        C874   1.423       .  A
C870        C871   1.395       .  A
C870        H875   1.084       .  S
C871        C872   1.412       .  A
C871        C878   1.445       .  S
C872        C873   1.396   1_545  A
C873        C874   1.393       .  A
C873        H876   1.085       .  S
C874        C877   1.446       .  S
C877        N879   1.158       .  T
C878        N880   1.157       .  T
C881        C882   1.413   1_565  A
C881        C886   1.405       .  A
C882        C883   1.408       .  A
C882        H887   1.085       .  S
C883        C884   1.408       .  A
C883        C890   1.443       .  S
C884        C885   1.416   1_545  A
C885        C886   1.404       .  A
C885        H888   1.086       .  S
C886        C889   1.444       .  S
C889        N891   1.157       .  T
C890        N892   1.157       .  T
C893        C894   1.409       .  A
C893        C898   1.412       .  A
C894        C895   1.400       .  A
C894        H899   1.084       .  S
C895        C896   1.410       .  A
C895        C902   1.444       .  S
C896        C897   1.409       .  A
C897        C898   1.403       .  A
C897        H900   1.083       .  S
C898        C901   1.444       .  S
C901        N903   1.157       .  T
C902        N904   1.157       .  T
C905        C906   1.417       .  A
C905        C910   1.419       .  A
C906        C907   1.415       .  A
C906        H911   1.084       .  S
C907        C908   1.415       .  A
C907        C914   1.443       .  S
C908        C909   1.413       .  A
C909        C910   1.411       .  A
C909        H912   1.085       .  S
C910        C913   1.444       .  S
C913        N915   1.158       .  T
C914        N916   1.157       .  T
C917        C918   1.407   1_565  A
C917        C922   1.408       .  A
C918        C919   1.390       .  A
C918        H923   1.084       .  S
C919        C920   1.402   1_545  A
C919        C926   1.446       .  S
C920        C921   1.403       .  A
C921        C922   1.394       .  A
C921        H924   1.086       .  S
C922        C925   1.444       .  S
C925        N927   1.157       .  T
C926        N928   1.157       .  T
Fe929       O945   2.105       .  S
Fe929       O935   2.059       .  S
Fe929       O942   2.103       .  S
Fe929       O934   2.111       .  S
Fe929       O940   1.926       .  S
Fe930       O933   2.025       .  S
Fe930       O937   2.079       .  S
Fe930       O941   2.035       .  S
Fe930       O946   2.088       .  S
Fe930       O940   1.931       .  S
Fe931       O949   2.062       .  S
Fe931       O936   2.057       .  S
Fe931       O943   2.055       .  S
Fe931       O932   2.054       .  S
Fe931       O940   1.946       .  S
O932        C939   1.266       .  A
O933        C947   1.253       .  A
O934        C939   1.284       .  A
O935        C938   1.269       .  A
O936        C948   1.274       .  A
O937        C950   1.272       .  A
C938        O943   1.273       .  A
C938       C1797   1.480       .  S
C939       C1809   1.487       .  S
O941        C944   1.265       .  A
O942        C944   1.276       .  A
C944       C1821   1.487       .  S
O945        C950   1.278       .  A
O946        C948   1.279       .  A
C947        O949   1.263       .  A
C947       C1845   1.463       .  S
C948       C1785   1.492       .  S
C950       C1833   1.519       .  S
Fe951       O967   2.120       .  S
Fe951       O957   2.057       .  S
Fe951       O964   2.107       .  S
Fe951       O956   2.125       .  S
Fe951       O962   1.940       .  S
Fe952       O955   2.028       .  S
Fe952       O959   2.074       .  S
Fe952       O963   2.036       .  S
Fe952       O968   2.077       .  S
Fe952       O962   1.947       .  S
Fe953       O971   2.048       .  S
Fe953       O958   2.057       .  S
Fe953       O965   2.052       .  S
Fe953       O954   2.040       .  S
Fe953       O962   1.952       .  S
O954        C961   1.264       .  A
O955        C969   1.258       .  A
O956        C961   1.286       .  A
O957        C960   1.270       .  A
O958        C970   1.273       .  A
O959        C972   1.268       .  A
C960        O965   1.270       .  A
C960       C1752   1.483       .  S
C961       C1776   1.497       .  S
O963        C966   1.266       .  A
O964        C966   1.278       .  A
C966       C1824   1.484       .  S
O967        C972   1.279       .  A
O968        C970   1.272       .  A
C969        O971   1.262       .  A
C969       C1737   1.463       .  S
C970       C1764   1.478       .  S
C972       C1725   1.524       .  S
Fe973       O989   2.124       .  S
Fe973       O979   2.073       .  S
Fe973       O986   2.140       .  S
Fe973       O978   2.126       .  S
Fe973       O984   1.937       .  S
Fe974       O977   2.032       .  S
Fe974       O981   2.071       .  S
Fe974       O985   2.036       .  S
Fe974       O990   2.071       .  S
Fe974       O984   1.953       .  S
Fe975       O993   2.040   1_545  S
Fe975       O980   2.049       .  S
Fe975       O987   2.045       .  S
Fe975       O976   2.021       .  S
Fe975       O984   1.947       .  S
O976        C983   1.261       .  A
O977        C991   1.260       .  A
O978        C983   1.286       .  A
O979        C982   1.273       .  A
O980        C992   1.269       .  A
O981        C994   1.264       .  A
C982        O987   1.269       .  A
C982       C1677   1.484       .  S
C983       C1812   1.492       .  S
O985        C988   1.267       .  A
O986        C988   1.286       .  A
C988       C1689   1.502       .  S
O989        C994   1.278       .  A
O990        C992   1.272       .  A
C991        O993   1.261   1_545  A
C991       C1713   1.455       .  S
C992       C1665   1.483       .  S
C994       C1701   1.505       .  S
Fe995      O1011   2.119       .  S
Fe995      O1001   2.077       .  S
Fe995      O1008   2.144       .  S
Fe995      O1000   2.130       .  S
Fe995      O1006   1.925       .  S
Fe996       O999   2.015       .  S
Fe996      O1003   2.066       .  S
Fe996      O1007   2.021       .  S
Fe996      O1012   2.071       .  S
Fe996      O1006   1.932       .  S
Fe997      O1015   2.069       .  S
Fe997      O1002   2.060       .  S
Fe997      O1009   2.049       .  S
Fe997       O998   2.049       .  S
Fe997      O1006   1.957       .  S
O998       C1005   1.265       .  A
O999       C1013   1.251       .  A
O1000      C1005   1.289       .  A
O1001      C1004   1.273       .  A
O1002      C1014   1.274       .  A
O1003      C1016   1.268       .  A
C1004      O1009   1.272       .  A
C1004      C1641   1.484       .  S
C1005      C1773   1.496       .  S
O1007      C1010   1.261       .  A
O1008      C1010   1.285       .  A
C1010      C1692   1.497       .  S
O1011      C1016   1.280       .  A
O1012      C1014   1.276       .  A
C1013      O1015   1.259       .  A
C1013      C1629   1.477       .  S
C1014      C1653   1.487       .  S
C1016      C1617   1.516       .  S
Fe1017     O1033   2.104       .  S
Fe1017     O1023   2.137       .  S
Fe1017     O1030   2.147       .  S
Fe1017     O1022   2.037       .  S
Fe1017     O1028   1.963       .  S
Fe1018     O1025   2.036       .  S
Fe1018     O1029   2.046       .  S
Fe1018     O1034   2.020       .  S
Fe1018     O1028   1.959       .  S
Fe1019     O1024   2.044       .  S
Fe1019     O1031   2.029       .  S
Fe1019     O1020   2.062       .  S
Fe1019     O1028   1.970       .  S
O1020      C1027   1.268       .  A
O1021      C1035   1.270       .  A
O1022      C1027   1.265       .  A
O1023      C1026   1.287       .  A
O1024      C1036   1.260       .  A
O1025      C1038   1.259       .  A
C1026      O1031   1.263       .  A
C1026      C1569   1.490       .  S
C1027      C1668   1.474       .  S
O1029      C1032   1.269       .  A
O1030      C1032   1.289       .  A
C1032      C1608   1.519       .  S
O1033      C1038   1.271       .  A
O1034      C1036   1.258       .  A
C1035      O1037   1.273       .  A
C1035      C1680   1.473       .  S
C1036      C1596   1.447       .  S
C1038      C1581   1.485       .  S
Fe1039     O1055   2.107       .  S
Fe1039     O1045   2.137       .  S
Fe1039     O1052   2.147       .  S
Fe1039     O1044   2.056       .  S
Fe1039     O1050   1.965       .  S
Fe1040     O1047   2.034       .  S
Fe1040     O1051   2.031       .  S
Fe1040     O1056   2.030       .  S
Fe1040     O1050   1.960       .  S
Fe1041     O1046   2.044       .  S
Fe1041     O1053   2.027       .  S
Fe1041     O1042   2.050       .  S
Fe1041     O1050   1.963       .  S
O1042      C1049   1.264       .  A
O1043      C1057   1.265   1_455  A
O1044      C1049   1.266       .  A
O1045      C1048   1.288       .  A
O1046      C1058   1.261       .  A
O1047      C1060   1.259       .  A
C1048      O1053   1.265       .  A
C1048      C1557   1.488       .  S
C1049      C1656   1.476       .  S
O1051      C1054   1.264       .  A
O1052      C1054   1.289       .  A
C1054      C1536   1.511       .  S
O1055      C1060   1.272       .  A
O1056      C1058   1.262       .  A
C1057      O1059   1.270   1_655  A
C1057      C1644   1.466       .  S
C1058      C1548   1.447       .  S
C1060      C1584   1.486       .  S
Fe1061     O1077   2.110       .  S
Fe1061     O1067   2.143       .  S
Fe1061     O1074   2.151       .  S
Fe1061     O1066   2.067       .  S
Fe1061     O1072   1.961       .  S
Fe1062     O1069   2.023       .  S
Fe1062     O1073   2.017       .  S
Fe1062     O1078   2.027       .  S
Fe1062     O1072   1.951       .  S
Fe1063     O1068   2.045       .  S
Fe1063     O1075   2.028       .  S
Fe1063     O1064   2.053       .  S
Fe1063     O1072   1.959       .  S
O1064      C1071   1.265       .  A
O1065      C1079   1.262       .  A
O1066      C1071   1.268       .  A
O1067      C1070   1.289       .  A
O1068      C1080   1.261       .  A
O1069      C1082   1.258       .  A
C1070      O1075   1.266       .  A
C1070      C1572   1.489       .  S
C1071      C1788   1.480       .  S
O1073      C1076   1.262       .  A
O1074      C1076   1.290       .  A
C1076      C1521   1.510       .  S
O1077      C1082   1.274       .  A
O1078      C1080   1.263       .  A
C1079      O1081   1.271       .  A
C1079      C1800   1.465       .  S
C1080      C1509   1.452   1_545  S
C1082      C1497   1.484       .  S
Fe1083     O1099   2.100       .  S
Fe1083     O1089   2.142       .  S
Fe1083     O1096   2.145       .  S
Fe1083     O1088   2.051       .  S
Fe1083     O1094   1.946       .  S
Fe1084     O1091   2.039       .  S
Fe1084     O1095   2.031       .  S
Fe1084     O1100   2.029       .  S
Fe1084     O1094   1.947       .  S
Fe1085     O1090   2.042       .  S
Fe1085     O1097   2.019       .  S
Fe1085     O1086   2.068       .  S
Fe1085     O1094   1.954       .  S
O1086      C1093   1.268       .  A
O1087      C1101   1.266       .  A
O1088      C1093   1.264       .  A
O1089      C1092   1.289       .  A
O1090      C1102   1.262       .  A
O1091      C1104   1.261       .  A
C1092      O1097   1.264       .  A
C1092      C1560   1.483       .  S
C1093      C1761   1.491       .  S
O1095      C1098   1.265       .  A
O1096      C1098   1.290       .  A
C1098      C1485   1.513       .  S
O1099      C1104   1.272       .  A
O1100      C1102   1.264       .  A
C1101      O1103   1.271   1_655  A
C1101      C1749   1.469       .  S
C1102      C1473   1.445       .  S
C1104      C1500   1.483       .  S
Fe1105     O1121   2.115       .  S
Fe1105     O1111   2.142       .  S
Fe1105     O1118   2.139       .  S
Fe1105     O1110   2.067       .  S
Fe1105     O1116   1.965       .  S
Fe1106     O1109   2.048       .  S
Fe1106     O1113   2.042       .  S
Fe1106     O1117   2.032       .  S
Fe1106     O1122   2.028       .  S
Fe1106     O1116   1.960       .  S
Fe1107     O1125   2.081       .  S
Fe1107     O1112   2.043       .  S
Fe1107     O1119   2.021       .  S
Fe1107     O1108   2.076       .  S
Fe1107     O1116   1.958       .  S
O1108      C1115   1.269       .  A
O1109      C1123   1.267       .  A
O1110      C1115   1.269       .  A
O1111      C1114   1.288       .  A
O1112      C1124   1.263       .  A
O1113      C1126   1.262       .  A
C1114      O1119   1.265       .  A
C1114      C1449   1.504       .  S
C1115      C1428   1.488       .  S
O1117      C1120   1.264       .  A
O1118      C1120   1.287       .  A
C1120      C1524   1.508       .  S
O1121      C1126   1.277       .  A
O1122      C1124   1.262       .  A
C1123      O1125   1.272       .  A
C1123      C1437   1.472       .  S
C1124      C1848   1.444   1_545  S
C1126      C1464   1.492       .  S
Fe1127     O1143   2.133       .  S
Fe1127     O1133   2.119       .  S
Fe1127     O1140   2.116       .  S
Fe1127     O1132   2.088       .  S
Fe1127     O1138   1.932       .  S
Fe1128     O1131   2.061       .  S
Fe1128     O1135   2.038       .  S
Fe1128     O1139   2.060       .  S
Fe1128     O1144   2.037       .  S
Fe1128     O1138   1.938       .  S
Fe1129     O1147   2.067       .  S
Fe1129     O1134   2.048       .  S
Fe1129     O1141   2.053       .  S
Fe1129     O1130   2.039       .  S
Fe1129     O1138   1.949       .  S
O1130      C1137   1.268       .  A
O1131      C1145   1.271       .  A
O1132      C1137   1.275       .  A
O1133      C1136   1.285       .  A
O1134      C1146   1.262       .  A
O1135      C1148   1.266       .  A
C1136      O1141   1.265       .  A
C1136      C1413   1.489       .  S
C1137      C1404   1.478       .  S
O1139      C1142   1.263       .  A
O1140      C1142   1.278       .  A
C1142      C1488   1.513       .  S
O1143      C1148   1.284       .  A
O1144      C1146   1.260       .  A
C1145      O1147   1.276       .  A
C1145      C1389   1.483       .  S
C1146      C1740   1.465       .  S
C1148      C1461   1.499       .  S
Fe1149     O1165   2.126       .  S
Fe1149     O1155   2.116       .  S
Fe1149     O1162   2.115       .  S
Fe1149     O1154   2.088       .  S
Fe1149     O1160   1.931       .  S
Fe1150     O1153   2.067       .  S
Fe1150     O1157   2.041       .  S
Fe1150     O1161   2.067       .  S
Fe1150     O1166   2.034       .  S
Fe1150     O1160   1.941       .  S
Fe1151     O1169   2.078       .  S
Fe1151     O1156   2.042       .  S
Fe1151     O1163   2.043       .  S
Fe1151     O1152   2.056       .  S
Fe1151     O1160   1.951       .  S
O1152      C1159   1.272       .  A
O1153      C1167   1.272       .  A
O1154      C1159   1.275       .  A
O1155      C1158   1.284       .  A
O1156      C1168   1.260       .  A
O1157      C1170   1.266       .  A
C1158      O1163   1.263       .  A
C1158      C1452   1.485       .  S
C1159      C1353   1.483       .  S
O1161      C1164   1.267       .  A
O1162      C1164   1.279       .  A
C1164      C1605   1.517       .  S
O1165      C1170   1.282       .  A
O1166      C1168   1.258       .  A
C1167      O1169   1.278       .  A
C1167      C1368   1.485       .  S
C1168      C1716   1.454       .  S
C1170      C1377   1.497       .  S
Fe1171     O1187   2.104       .  S
Fe1171     O1177   2.154       .  S
Fe1171     O1184   2.155       .  S
Fe1171     O1176   2.051       .  S
Fe1171     O1182   1.951       .  S
Fe1172     O1175   2.044       .  S
Fe1172     O1179   2.038       .  S
Fe1172     O1183   2.031       .  S
Fe1172     O1188   2.036       .  S
Fe1172     O1182   1.941       .  S
Fe1173     O1191   2.089       .  S
Fe1173     O1178   2.045       .  S
Fe1173     O1185   2.024       .  S
Fe1173     O1174   2.068       .  S
Fe1173     O1182   1.957       .  S
O1174      C1181   1.268       .  A
O1175      C1189   1.264       .  A
O1176      C1181   1.264       .  A
O1177      C1180   1.293       .  A
O1178      C1190   1.263       .  A
O1179      C1192   1.261       .  A
C1180      O1185   1.266       .  A
C1180      C1416   1.505       .  S
C1181      C1344   1.487       .  S
O1183      C1186   1.264       .  A
O1184      C1186   1.290       .  A
C1186      C1533   1.518       .  S
O1187      C1192   1.273       .  A
O1188      C1190   1.267       .  A
C1189      O1191   1.271       .  A
C1189      C1329   1.464       .  S
C1190      C1632   1.451       .  S
C1192      C1380   1.486       .  S
Fe1193     O1209   2.110       .  S
Fe1193     O1199   2.079       .  S
Fe1193     O1206   2.141       .  S
Fe1193     O1198   2.112       .  S
Fe1193     O1204   1.945       .  S
Fe1194     O1197   2.014       .  S
Fe1194     O1201   2.073       .  S
Fe1194     O1205   2.023       .  S
Fe1194     O1204   1.942       .  S
Fe1195     O1213   2.058       .  S
Fe1195     O1207   2.066       .  S
Fe1195     O1196   2.030       .  S
Fe1195     O1204   1.960       .  S
O1196      C1203   1.261       .  A
O1197      C1211   1.253       .  A
O1198      C1203   1.285       .  A
O1199      C1202   1.275       .  A
O1200      C1212   1.276   1_455  A
O1201      C1214   1.270       .  A
C1202      O1207   1.274       .  A
C1202      C1440   1.486       .  S
C1203      C1305   1.492       .  S
O1205      C1208   1.262       .  A
O1206      C1208   1.284       .  A
C1208      C1320   1.496       .  S
O1209      C1214   1.277       .  A
O1210      C1212   1.277       .  A
C1211      O1213   1.258       .  A
C1211      C1512   1.474       .  S
C1212      C1425   1.499       .  S
C1214      C1836   1.515       .  S
Fe1215     O1231   2.128       .  S
Fe1215     O1221   2.074       .  S
Fe1215     O1228   2.132       .  S
Fe1215     O1220   2.130       .  S
Fe1215     O1226   1.928       .  S
Fe1216     O1219   2.025       .  S
Fe1216     O1223   2.064       .  S
Fe1216     O1227   2.030       .  S
Fe1216     O1226   1.939       .  S
Fe1217     O1235   2.049       .  S
Fe1217     O1229   2.055       .  S
Fe1217     O1218   2.042       .  S
Fe1217     O1226   1.950       .  S
O1218      C1225   1.261       .  A
O1219      C1233   1.256       .  A
O1220      C1225   1.288       .  A
O1221      C1224   1.273       .  A
O1222      C1234   1.277       .  A
O1223      C1236   1.268       .  A
C1224      O1229   1.272       .  A
C1224      C1392   1.480       .  S
C1225      C1293   1.510       .  S
O1227      C1230   1.262       .  A
O1228      C1230   1.282       .  A
C1230      C1317   1.497       .  S
O1231      C1236   1.281       .  A
O1232      C1234   1.273       .  A
C1233      O1235   1.258       .  A
C1233      C1476   1.471       .  S
C1234      C1401   1.480       .  S
C1236      C1728   1.520       .  S
Fe1237     O1253   2.108       .  S
Fe1237     O1243   2.076       .  S
Fe1237     O1250   2.131       .  S
Fe1237     O1242   2.118       .  S
Fe1237     O1248   1.930       .  S
Fe1238     O1241   2.021       .  S
Fe1238     O1245   2.084       .  S
Fe1238     O1249   2.032       .  S
Fe1238     O1248   1.932       .  S
Fe1239     O1257   2.057       .  S
Fe1239     O1251   2.066       .  S
Fe1239     O1240   2.040       .  S
Fe1239     O1248   1.941       .  S
O1240      C1247   1.263       .  A
O1241      C1255   1.254       .  A
O1242      C1247   1.288       .  A
O1243      C1246   1.272       .  A
O1244      C1256   1.278       .  A
O1245      C1258   1.270       .  A
C1246      O1251   1.275       .  A
C1246      C1365   1.485       .  S
C1247      C1308   1.494       .  S
O1249      C1252   1.263       .  A
O1250      C1252   1.281       .  A
C1252      C1281   1.497       .  S
O1253      C1258   1.277       .  A
O1254      C1256   1.278       .  A
C1255      O1257   1.263       .  A
C1255      C1593   1.466       .  S
C1256      C1356   1.489   1_455  S
C1258      C1704   1.501       .  S
Fe1259     O1275   2.106       .  S
Fe1259     O1265   2.074       .  S
Fe1259     O1272   2.132       .  S
Fe1259     O1264   2.117       .  S
Fe1259     O1270   1.941       .  S
Fe1260     O1263   2.024       .  S
Fe1260     O1267   2.073       .  S
Fe1260     O1271   2.035       .  S
Fe1260     O1270   1.945       .  S
Fe1261     O1279   2.059       .  S
Fe1261     O1273   2.065       .  S
Fe1261     O1262   2.046       .  S
Fe1261     O1270   1.952       .  S
O1262      C1269   1.264       .  A
O1263      C1277   1.254       .  A
O1264      C1269   1.286       .  A
O1265      C1268   1.272       .  A
O1266      C1278   1.276       .  A
O1267      C1280   1.269       .  A
C1268      O1273   1.273       .  A
C1268      C1332   1.466       .  S
C1269      C1296   1.508       .  S
O1271      C1274   1.265       .  A
O1272      C1274   1.283       .  A
C1274      C1284   1.498       .  S
O1275      C1280   1.277       .  A
O1276      C1278   1.275       .  A
C1277      O1279   1.262       .  A
C1277      C1545   1.469       .  S
C1278      C1341   1.485       .  S
C1280      C1620   1.519       .  S
C1281      C1286   1.412       .  A
C1282      C1283   1.407       .  A
C1282      H1287   1.086       .  S
C1283      C1284   1.412       .  A
C1283      C1290   1.443       .  S
C1285      C1286   1.406       .  A
C1285      H1288   1.085       .  S
C1286      C1289   1.444       .  S
C1289      N1291   1.157       .  T
C1290      N1292   1.157       .  T
C1293      C1294   1.398       .  A
C1293      C1298   1.435       .  A
C1294      C1295   1.407       .  A
C1294      H1299   1.083       .  S
C1295      C1296   1.432       .  A
C1295      C1302   1.445       .  S
C1296      C1297   1.397       .  A
C1297      C1298   1.406       .  A
C1297      H1300   1.083       .  S
C1298      C1301   1.446       .  S
C1301      N1303   1.158       .  T
C1302      N1304   1.157       .  T
C1305      C1306   1.394       .  A
C1305      C1310   1.429   1_565  A
C1306      C1307   1.402       .  A
C1306      H1311   1.085       .  S
C1307      C1308   1.432   1_565  A
C1307      C1314   1.446       .  S
C1308      C1309   1.396       .  A
C1309      C1310   1.402       .  A
C1309      H1312   1.085       .  S
C1310      C1313   1.446       .  S
C1313      N1315   1.158       .  T
C1314      N1316   1.158       .  T
C1317      C1318   1.401       .  A
C1318      C1319   1.405       .  A
C1318      H1323   1.084       .  S
C1319      C1326   1.445       .  S
C1320      C1321   1.402       .  A
C1321      C1322   1.409       .  A
C1321      H1324   1.084       .  S
C1322      C1325   1.446       .  S
C1325      N1327   1.158       .  T
C1326      N1328   1.157       .  T
C1329      C1330   1.404       .  A
C1329      C1334   1.406       .  A
C1330      C1331   1.399       .  A
C1330      H1335   1.085       .  S
C1331      C1332   1.407       .  A
C1331      C1338   1.444       .  S
C1332      C1333   1.405       .  A
C1333      C1334   1.399       .  A
C1333      H1336   1.085       .  S
C1334      C1337   1.444       .  S
C1337      N1339   1.157       .  T
C1338      N1340   1.157       .  T
C1341      C1342   1.405       .  A
C1341      C1346   1.416       .  A
C1342      C1343   1.399       .  A
C1342      H1347   1.084       .  S
C1343      C1344   1.417       .  A
C1343      C1350   1.445       .  S
C1344      C1345   1.405       .  A
C1345      C1346   1.398       .  A
C1345      H1348   1.084       .  S
C1346      C1349   1.445       .  S
C1349      N1351   1.157       .  T
C1350      N1352   1.157       .  T
C1353      C1354   1.407       .  A
C1353      C1358   1.411   1_565  A
C1354      C1355   1.403       .  A
C1354      H1359   1.086       .  S
C1355      C1356   1.413   1_565  A
C1355      C1362   1.443       .  S
C1356      C1357   1.408       .  A
C1357      C1358   1.398       .  A
C1357      H1360   1.085       .  S
C1358      C1361   1.445       .  S
C1361      N1363   1.157       .  T
C1362      N1364   1.157       .  T
C1365      C1366   1.401   1_545  A
C1365      C1370   1.419       .  A
C1366      C1367   1.398       .  A
C1366      H1371   1.085       .  S
C1367      C1368   1.419       .  A
C1367      C1374   1.445       .  S
C1368      C1369   1.402   1_565  A
C1369      C1370   1.401       .  A
C1369      H1372   1.085       .  S
C1370      C1373   1.445       .  S
C1373      N1375   1.157       .  T
C1374      N1376   1.157       .  T
C1377      C1378   1.413       .  A
C1377      C1382   1.413       .  A
C1378      C1379   1.407       .  A
C1378      H1383   1.086       .  S
C1379      C1380   1.408       .  A
C1379      C1386   1.443       .  S
C1380      C1381   1.408       .  A
C1381      C1382   1.404       .  A
C1381      H1384   1.087       .  S
C1382      C1385   1.443       .  S
C1385      N1387   1.157       .  T
C1386      N1388   1.157       .  T
C1389      C1390   1.411       .  A
C1389      C1394   1.410       .  A
C1390      C1391   1.396       .  A
C1390      H1395   1.083       .  S
C1391      C1392   1.410       .  A
C1391      C1398   1.446       .  S
C1392      C1393   1.409       .  A
C1393      C1394   1.398       .  A
C1393      H1396   1.083       .  S
C1394      C1397   1.444       .  S
C1397      N1399   1.157       .  T
C1398      N1400   1.158       .  T
C1401      C1402   1.407       .  A
C1401      C1406   1.411       .  A
C1402      C1403   1.391       .  A
C1402      H1407   1.084       .  S
C1403      C1404   1.412       .  A
C1403      C1410   1.446       .  S
C1404      C1405   1.408       .  A
C1405      C1406   1.402       .  A
C1405      H1408   1.083       .  S
C1406      C1409   1.444       .  S
C1409      N1411   1.157       .  T
C1410      N1412   1.158       .  T
C1413      C1414   1.398       .  A
C1413      C1418   1.418       .  A
C1414      C1415   1.406       .  A
C1414      H1419   1.085       .  S
C1415      C1416   1.428       .  A
C1415      C1422   1.445       .  S
C1416      C1417   1.405       .  A
C1417      C1418   1.409       .  A
C1417      H1420   1.084       .  S
C1418      C1421   1.444       .  S
C1421      N1423   1.157       .  T
C1422      N1424   1.157       .  T
C1425      C1426   1.410       .  A
C1425      C1430   1.419   1_565  A
C1426      C1427   1.400       .  A
C1426      H1431   1.086       .  S
C1427      C1428   1.411   1_565  A
C1427      C1434   1.444       .  S
C1428      C1429   1.406       .  A
C1429      C1430   1.405       .  A
C1429      H1432   1.086       .  S
C1430      C1433   1.444       .  S
C1433      N1435   1.158       .  T
C1434      N1436   1.157       .  T
C1437      C1438   1.404       .  A
C1437      C1442   1.405   1_545  A
C1438      C1439   1.402       .  A
C1438      H1443   1.085       .  S
C1439      C1440   1.413   1_545  A
C1439      C1446   1.443       .  S
C1440      C1441   1.410       .  A
C1441      C1442   1.398       .  A
C1441      H1444   1.085       .  S
C1442      C1445   1.444       .  S
C1445      N1447   1.157       .  T
C1446      N1448   1.157       .  T
C1449      C1450   1.418   1_545  A
C1449      C1454   1.415       .  A
C1450      C1451   1.403       .  A
C1450      H1455   1.083       .  S
C1451      C1452   1.403       .  A
C1451      C1458   1.444       .  S
C1452      C1453   1.412   1_565  A
C1453      C1454   1.409       .  A
C1453      H1456   1.085       .  S
C1454      C1457   1.443       .  S
C1457      N1459   1.157       .  T
C1458      N1460   1.157       .  T
C1461      C1462   1.404       .  A
C1461      C1466   1.421       .  A
C1462      C1463   1.406       .  A
C1462      H1467   1.084       .  S
C1463      C1464   1.417       .  A
C1463      C1470   1.444       .  S
C1464      C1465   1.402       .  A
C1465      C1466   1.410       .  A
C1465      H1468   1.084       .  S
C1466      C1469   1.445       .  S
C1469      N1471   1.157       .  T
C1470      N1472   1.157       .  T
C1473      C1478   1.407       .  A
C1474      C1475   1.388   1_455  A
C1474      H1479   1.081       .  S
C1475      C1476   1.422       .  A
C1475      C1482   1.446       .  S
C1477      C1478   1.395       .  A
C1477      H1480   1.079       .  S
C1478      C1481   1.445       .  S
C1481      N1483   1.157       .  T
C1482      N1484   1.158       .  T
C1485      C1486   1.403       .  A
C1485      C1490   1.428       .  A
C1486      C1487   1.410       .  A
C1486      H1491   1.083       .  S
C1487      C1488   1.428       .  A
C1487      C1494   1.444       .  S
C1488      C1489   1.404       .  A
C1489      C1490   1.409       .  A
C1489      H1492   1.083       .  S
C1490      C1493   1.445       .  S
C1493      N1495   1.158       .  T
C1494      N1496   1.157       .  T
C1497      C1502   1.407       .  A
C1498      C1499   1.405       .  A
C1498      H1503   1.084       .  S
C1499      C1500   1.407       .  A
C1499      C1506   1.444       .  S
C1501      C1502   1.406       .  A
C1501      H1504   1.084       .  S
C1502      C1505   1.443       .  S
C1505      N1507   1.157       .  T
C1506      N1508   1.157       .  T
C1509      C1510   1.398   1_565  A
C1510      C1511   1.390       .  A
C1510      H1515   1.086       .  S
C1511      C1518   1.445       .  S
C1512      C1513   1.406       .  A
C1513      C1514   1.394       .  A
C1513      H1516   1.085       .  S
C1514      C1517   1.445       .  S
C1517      N1519   1.157       .  T
C1518      N1520   1.157       .  T
C1521      C1522   1.403       .  A
C1521      C1526   1.429       .  A
C1522      C1523   1.411       .  A
C1522      H1527   1.084       .  S
C1523      C1524   1.427       .  A
C1523      C1530   1.444       .  S
C1524      C1525   1.401       .  A
C1525      C1526   1.406       .  A
C1525      H1528   1.084       .  S
C1526      C1529   1.446       .  S
C1529      N1531   1.157       .  T
C1530      N1532   1.157       .  T
C1533      C1534   1.405       .  A
C1533      C1538   1.431   1_556  A
C1534      C1535   1.413       .  A
C1534      H1539   1.083       .  S
C1535      C1536   1.426   1_556  A
C1535      C1542   1.445       .  S
C1536      C1537   1.401       .  A
C1537      C1538   1.410       .  A
C1537      H1540   1.084       .  S
C1538      C1541   1.445       .  S
C1541      N1543   1.157       .  T
C1542      N1544   1.157       .  T
C1545      C1550   1.410   1_556  A
C1546      C1547   1.392       .  A
C1546      H1551   1.083       .  S
C1547      C1548   1.402   1_556  A
C1547      C1554   1.445       .  S
C1549      C1550   1.393   1_455  A
C1549      H1552   1.085       .  S
C1550      C1553   1.443       .  S
C1553      N1555   1.156       .  T
C1554      N1556   1.157       .  T
C1557      C1558   1.406       .  A
C1557      C1562   1.414       .  A
C1558      C1559   1.401       .  A
C1558      H1563   1.085       .  S
C1559      C1560   1.413       .  A
C1560      C1561   1.407       .  A
C1561      C1562   1.411       .  A
C1561      H1564   1.085       .  S
C1562      C1565   1.443       .  S
C1565      N1567   1.157       .  T
C1566      N1568   1.157   1_455  T
C1569      C1570   1.406       .  A
C1569      C1574   1.416       .  A
C1570      C1571   1.404   1_565  A
C1570      H1575   1.085       .  S
C1571      C1572   1.415       .  A
C1572      C1573   1.406       .  A
C1573      C1574   1.411   1_545  A
C1573      H1576   1.085       .  S
C1574      C1577   1.442       .  S
C1577      N1579   1.157       .  T
C1578      N1580   1.157       .  T
C1581      C1582   1.401       .  A
C1582      C1583   1.407       .  A
C1582      H1587   1.084       .  S
C1583      C1590   1.445       .  S
C1584      C1585   1.399       .  A
C1585      C1586   1.405       .  A
C1585      H1588   1.084       .  S
C1586      C1589   1.443       .  S
C1589      N1591   1.157       .  T
C1590      N1592   1.157       .  T
C1593      C1598   1.411   1_556  A
C1594      C1595   1.388   1_455  A
C1594      H1599   1.083       .  S
C1595      C1596   1.401   1_556  A
C1595      C1602   1.444       .  S
C1596      C1597   1.402   1_565  A
C1597      H1600   1.084       .  S
C1598      C1601   1.444       .  S
C1601      N1603   1.157       .  T
C1602      N1604   1.157       .  T
C1605      C1606   1.417       .  A
C1605      C1610   1.414       .  A
C1606      C1607   1.415   1_556  A
C1606      H1611   1.083       .  S
C1607      C1608   1.416       .  A
C1607      C1614   1.443       .  S
C1608      C1609   1.417   1_554  A
C1609      C1610   1.411       .  A
C1609      H1612   1.084       .  S
C1610      C1613   1.443       .  S
C1613      N1615   1.157       .  T
C1614      N1616   1.157       .  T
C1617      C1618   1.414   1_554  A
C1617      C1622   1.414       .  A
C1618      C1619   1.409       .  A
C1618      H1623   1.085       .  S
C1619      C1620   1.417       .  A
C1619      C1626   1.444       .  S
C1620      C1621   1.418       .  A
C1621      C1622   1.416   1_556  A
C1621      H1624   1.084       .  S
C1622      C1625   1.443       .  S
C1625      N1627   1.157       .  T
C1626      N1628   1.157       .  T
C1629      C1630   1.407   1_554  A
C1629      C1634   1.421       .  A
C1630      C1631   1.396       .  A
C1630      H1635   1.084       .  S
C1631      C1632   1.406       .  A
C1631      C1638   1.445       .  S
C1632      C1633   1.397   1_556  A
C1633      C1634   1.390       .  A
C1633      H1636   1.086       .  S
C1634      C1637   1.445       .  S
C1637      N1639   1.157       .  T
C1638      N1640   1.157       .  T
C1641      C1642   1.406       .  A
C1641      C1646   1.422       .  A
C1642      C1643   1.395       .  A
C1642      H1647   1.084       .  S
C1643      C1644   1.410       .  A
C1643      C1650   1.446       .  S
C1644      C1645   1.397       .  A
C1645      C1646   1.396       .  A
C1645      H1648   1.085       .  S
C1646      C1649   1.445       .  S
C1649      N1651   1.157       .  T
C1650      N1652   1.157       .  T
C1653      C1654   1.409       .  A
C1653      C1658   1.416       .  A
C1654      C1655   1.392       .  A
C1654      H1659   1.084       .  S
C1655      C1656   1.410       .  A
C1655      C1662   1.446       .  S
C1656      C1657   1.404       .  A
C1657      C1658   1.400       .  A
C1657      H1660   1.084       .  S
C1658      C1661   1.444       .  S
C1661      N1663   1.157       .  T
C1662      N1664   1.157       .  T
C1665      C1666   1.410       .  A
C1665      C1670   1.415   1_545  A
C1666      C1667   1.398       .  A
C1666      H1671   1.085       .  S
C1667      C1668   1.409   1_545  A
C1667      C1674   1.445       .  S
C1668      C1669   1.403       .  A
C1669      C1670   1.391       .  A
C1669      H1672   1.086       .  S
C1670      C1673   1.445       .  S
C1673      N1675   1.157       .  T
C1674      N1676   1.157       .  T
C1677      C1678   1.410       .  A
C1677      C1682   1.416   1_545  A
C1678      C1679   1.396       .  A
C1678      H1683   1.082       .  S
C1679      C1680   1.409   1_545  A
C1679      C1686   1.445       .  S
C1680      C1681   1.404       .  A
C1681      C1682   1.396       .  A
C1681      H1684   1.083       .  S
C1682      C1685   1.445       .  S
C1685      N1687   1.157       .  T
C1686      N1688   1.157       .  T
C1689      C1690   1.403       .  A
C1689      C1694   1.423       .  A
C1690      C1691   1.408       .  A
C1690      H1695   1.085       .  S
C1691      C1692   1.422       .  A
C1691      C1698   1.446       .  S
C1692      C1693   1.401       .  A
C1693      C1694   1.407       .  A
C1693      H1696   1.085       .  S
C1694      C1697   1.445       .  S
C1697      N1699   1.157       .  T
C1698      N1700   1.158       .  T
C1701      C1702   1.412   1_554  A
C1701      C1706   1.416       .  A
C1702      C1703   1.421       .  A
C1702      H1707   1.085   1_556  S
C1703      C1704   1.414       .  A
C1703      C1710   1.441       .  S
C1704      C1705   1.403       .  A
C1705      C1706   1.405   1_556  A
C1705      H1708   1.086       .  S
C1706      C1709   1.442       .  S
C1709      N1711   1.156       .  T
C1710      N1712   1.157       .  T
C1713      C1714   1.410   1_545  A
C1713      C1718   1.402   1_554  A
C1714      C1715   1.389       .  A
C1714      H1719   1.084       .  S
C1715      C1716   1.401   1_554  A
C1715      C1722   1.444       .  S
C1716      C1717   1.408   1_565  A
C1717      C1718   1.387       .  A
C1717      H1720   1.083       .  S
C1718      C1721   1.445       .  S
C1721      N1723   1.157       .  T
C1722      N1724   1.157       .  T
C1725      C1726   1.419       .  A
C1725      C1730   1.417       .  A
C1726      C1727   1.417       .  A
C1726      H1731   1.084       .  S
C1727      C1728   1.415       .  A
C1727      C1734   1.443       .  S
C1728      C1729   1.415       .  A
C1729      C1730   1.412       .  A
C1729      H1732   1.084       .  S
C1730      C1733   1.443       .  S
C1733      N1735   1.157       .  T
C1734      N1736   1.157       .  T
C1737      C1738   1.409       .  A
C1737      C1742   1.405       .  A
C1738      C1739   1.391       .  A
C1738      H1743   1.086       .  S
C1739      C1740   1.406       .  A
C1739      C1746   1.444       .  S
C1740      C1741   1.409       .  A
C1741      C1742   1.388       .  A
C1741      H1744   1.086       .  S
C1742      C1745   1.445       .  S
C1745      N1747   1.157       .  T
C1746      N1748   1.157       .  T
C1749      C1750   1.404       .  A
C1749      C1754   1.408       .  A
C1750      C1751   1.397       .  A
C1750      H1755   1.083       .  S
C1751      C1752   1.415       .  A
C1751      C1758   1.445       .  S
C1752      C1753   1.410       .  A
C1753      C1754   1.394       .  A
C1753      H1756   1.083       .  S
C1754      C1757   1.446       .  S
C1757      N1759   1.157       .  T
C1758      N1760   1.157       .  T
C1761      C1762   1.409       .  A
C1761      C1766   1.419       .  A
C1762      C1763   1.400       .  A
C1762      H1767   1.085       .  S
C1763      C1764   1.412       .  A
C1763      C1770   1.445       .  S
C1764      C1765   1.401       .  A
C1765      C1766   1.397       .  A
C1765      H1768   1.086       .  S
C1766      C1769   1.445       .  S
C1769      N1771   1.157       .  T
C1770      N1772   1.157       .  T
C1773      C1774   1.398       .  A
C1773      C1778   1.425       .  A
C1774      C1775   1.407       .  A
C1774      H1779   1.086       .  S
C1775      C1776   1.424       .  A
C1775      C1782   1.444       .  S
C1776      C1777   1.400       .  A
C1777      C1778   1.410       .  A
C1777      H1780   1.086       .  S
C1778      C1781   1.445       .  S
C1781      N1783   1.157       .  T
C1782      N1784   1.157       .  T
C1785      C1786   1.409       .  A
C1785      C1790   1.419   1_565  A
C1786      C1787   1.396       .  A
C1786      H1791   1.083       .  S
C1787      C1788   1.412   1_565  A
C1787      C1794   1.446       .  S
C1788      C1789   1.403       .  A
C1789      C1790   1.403       .  A
C1789      H1792   1.083       .  S
C1790      C1793   1.444       .  S
C1793      N1795   1.157       .  T
C1794      N1796   1.157       .  T
C1797      C1798   1.404   1_565  A
C1797      C1802   1.423       .  A
C1798      C1799   1.395       .  A
C1798      H1803   1.084       .  S
C1799      C1800   1.412       .  A
C1799      C1806   1.445       .  S
C1800      C1801   1.396   1_545  A
C1801      C1802   1.393       .  A
C1801      H1804   1.085       .  S
C1802      C1805   1.446       .  S
C1805      N1807   1.158       .  T
C1806      N1808   1.157       .  T
C1809      C1810   1.413   1_565  A
C1809      C1814   1.405       .  A
C1810      C1811   1.408       .  A
C1810      H1815   1.085       .  S
C1811      C1812   1.408       .  A
C1811      C1818   1.443       .  S
C1812      C1813   1.416   1_545  A
C1813      C1814   1.404       .  A
C1813      H1816   1.086       .  S
C1814      C1817   1.444       .  S
C1817      N1819   1.157       .  T
C1818      N1820   1.157       .  T
C1821      C1822   1.409       .  A
C1821      C1826   1.412       .  A
C1822      C1823   1.400       .  A
C1822      H1827   1.084       .  S
C1823      C1824   1.410       .  A
C1823      C1830   1.444       .  S
C1824      C1825   1.409       .  A
C1825      C1826   1.403       .  A
C1825      H1828   1.083       .  S
C1826      C1829   1.444       .  S
C1829      N1831   1.157       .  T
C1830      N1832   1.157       .  T
C1833      C1834   1.417       .  A
C1833      C1838   1.419       .  A
C1834      C1835   1.415       .  A
C1834      H1839   1.084       .  S
C1835      C1836   1.415       .  A
C1835      C1842   1.443       .  S
C1836      C1837   1.413       .  A
C1837      C1838   1.410       .  A
C1837      H1840   1.085       .  S
C1838      C1841   1.444       .  S
C1841      N1843   1.158       .  T
C1842      N1844   1.157       .  T
C1845      C1846   1.407   1_565  A
C1845      C1850   1.408       .  A
C1846      C1847   1.390       .  A
C1846      H1851   1.084       .  S
C1847      C1848   1.402   1_545  A
C1847      C1854   1.446       .  S
C1848      C1849   1.403       .  A
C1849      C1850   1.394       .  A
C1849      H1852   1.086       .  S
C1850      C1853   1.445       .  S
C1853      N1855   1.157       .  T
C1854      N1856   1.157       .  T
