geometry optimzed in LAMMPS
_audit_creation_date              2020-12-01 
_audit_creation_method            'lammps2cif' 
_symmetry_space_group_name_H-M    'P1' 
_symmetry_Int_Tables_number       1 
_symmetry_cell_setting            triclinic 
loop_ 
_symmetry_equiv_pos_as_xyz 
  x,y,z 
_cell_length_a                    49.15599315 
_cell_length_b                    26.32066457128942 
_cell_length_c                    29.663673832431115 
_cell_angle_alpha                 90.07900694698567 
_cell_angle_beta                  92.65599815921128 
_cell_angle_gamma                 90.1045280173355 
loop_ 
_atom_site_label 
_atom_site_type_symbol 
_atom_site_fract_x 
_atom_site_fract_y 
_atom_site_fract_z 
_atom_site_charge 
O1          O  0.86292060  0.55380001  0.63217245    -0.85800
O2          O  0.81711101  0.61028635  0.62610361    -0.82800
C3          C  0.79384557  0.62638882  0.63464530     0.97700
O4          O  0.78613640  0.62840002  0.67499547    -0.82800
O5          O  0.77802007  0.53089993  0.70623568    -0.85500
C6          C  0.78381705  0.48582347  0.71691163     1.02200
O7          O  0.80806145  0.47379921  0.72810453    -0.78200
O8          O  0.83767571  0.49023773  0.65327290    -0.78400
C9          C  0.85049725  0.51245501  0.62329999     1.02200
O10         O  0.88084398  0.61172365  0.71166855    -0.85800
O11         O  0.83493614  0.67677100  0.69662053    -0.82800
C12         C  0.82433610  0.68556087  0.73398718     0.97700
O13         O  0.81782224  0.64891313  0.75824321    -0.82800
O14         O  0.80823156  0.55349242  0.78967212    -0.85500
C15         C  0.83062221  0.53574476  0.80600435     1.02200
O16         O  0.84964400  0.52453683  0.78081258    -0.78300
O17         O  0.88255379  0.52863273  0.70983774    -0.78400
C18         C  0.89424539  0.57104673  0.71718084     1.02200
Cr19       Cr  0.84792545  0.61042247  0.66989218     1.93700
Cr20       Cr  0.79983178  0.58912562  0.73038116     1.93200
Cr21       Cr  0.84355125  0.50859891  0.71700076     1.39100
O22         O  0.83022684  0.56953333  0.70595523    -1.23500
O23         O  0.65152908  0.93271499  0.35085403    -0.85800
O24         O  0.67931284  0.94555417  0.27242810    -0.82800
C25         C  0.70384638  0.93642163  0.28421319     0.97700
O26         O  0.71046006  0.89312973  0.29880717    -0.82800
O27         O  0.70526495  0.79522776  0.33110336    -0.85500
C28         C  0.69823887  0.79711932  0.37185438     1.02200
O29         O  0.67520641  0.81348637  0.38136163    -0.78200
O30         O  0.62872713  0.86770088  0.37589145    -0.78400
C31         C  0.63960180  0.91115698  0.38231931     1.02200
O32         O  0.60665205  0.88828596  0.29906366    -0.85800
O33         O  0.63749380  0.88939642  0.22611568    -0.82800
C34         C  0.65634294  0.88064461  0.20001152     0.97700
O35         O  0.67964540  0.86597447  0.21547287    -0.82800
O36         O  0.67279556  0.77114380  0.24983483    -0.85500
C37         C  0.66710796  0.73478070  0.27504660     1.02200
O38         O  0.65716144  0.74390633  0.31292742    -0.78300
O39         O  0.61033896  0.80553390  0.29880505    -0.78400
C40         C  0.59610540  0.84492442  0.29193967     1.02200
Cr41       Cr  0.64485543  0.91000041  0.28831755     1.93700
Cr42       Cr  0.68995403  0.83264764  0.27570988     1.93200
Cr43       Cr  0.64369163  0.81027254  0.33910394     1.39100
O44         O  0.65973493  0.85079649  0.30106839    -1.23500
O45         O  0.62660900  0.05265847  0.87449791    -0.85800
O46         O  0.67190216  0.10943072  0.88028512    -0.82800
C47         C  0.69535045  0.12508418  0.87248853     0.97700
O48         O  0.70367792  0.12574477  0.83245783    -0.82800
O49         O  0.71127709  0.02777498  0.80294687    -0.85500
C50         C  0.70568258  0.98279665  0.79171216     1.02200
O51         O  0.68150354  0.97061408  0.77985693    -0.78200
O52         O  0.65142424  0.98833217  0.85412625    -0.78400
C53         C  0.63870149  0.01104577  0.88391313     1.02200
O54         O  0.60878851  0.10914225  0.79356586    -0.85800
O55         O  0.65513712  0.17475718  0.80842039    -0.82800
C56         C  0.66665556  0.18232465  0.77158320     0.97700
O57         O  0.67279235  0.14482589  0.74809696    -0.82800
O58         O  0.68167789  0.04923020  0.71782891    -0.85500
C59         C  0.65920642  0.03136027  0.70153541     1.02200
O60         O  0.64008613  0.02056829  0.72660153    -0.78300
O61         O  0.60673680  0.02615372  0.79687424    -0.78400
C62         C  0.59520062  0.06847056  0.78846546     1.02200
Cr63       Cr  0.64157680  0.10872585  0.83592139     1.93700
Cr64       Cr  0.69010958  0.08558656  0.77715350     1.93200
Cr65       Cr  0.64589439  0.00575725  0.79040137     1.39100
O66         O  0.65938259  0.06688772  0.80094891    -1.23500
O67         O  0.83622142  0.43377206  0.15608812    -0.85800
O68         O  0.80846580  0.44561735  0.23349850    -0.82800
C69         C  0.78411340  0.43350686  0.22288717     0.97700
O70         O  0.77816200  0.38868040  0.21153999    -0.82800
O71         O  0.78534614  0.29397342  0.17510665    -0.85500
C72         C  0.79188815  0.29848177  0.13426183     1.02200
O73         O  0.81463645  0.31660690  0.12486114    -0.78200
O74         O  0.86110977  0.37184880  0.13160808    -0.78400
C75         C  0.84835559  0.41300531  0.12455446     1.02200
O76         O  0.88253304  0.39202911  0.20872417    -0.85800
O77         O  0.85130326  0.39303779  0.28203941    -0.82800
C78         C  0.83280100  0.38010826  0.30768218     0.97700
O79         O  0.81032031  0.36203583  0.29180620    -0.82800
O80         O  0.81900521  0.26776495  0.25483929    -0.85500
C81         C  0.82418642  0.23360382  0.22696063     1.02200
O82         O  0.83374522  0.24561231  0.18959135    -0.78300
O83         O  0.88037451  0.30884921  0.20603351    -0.78400
C84         C  0.89414621  0.34904773  0.21280207     1.02200
Cr85       Cr  0.84369918  0.41187746  0.21895633     1.93700
Cr86       Cr  0.80044248  0.32962189  0.23155650     1.93200
Cr87       Cr  0.84657158  0.31321408  0.16648017     1.39100
O88         O  0.83009077  0.35136262  0.20609530    -1.23500
O89         O  0.12914314  0.54760983  0.87137316    -0.85800
O90         O  0.17450961  0.60501324  0.88031672    -0.82800
C91         C  0.19778890  0.62156997  0.87236582     0.97700
O92         O  0.20517429  0.62607514  0.83198219    -0.82800
O93         O  0.21261418  0.53052162  0.79786249    -0.85500
C94         C  0.20728503  0.48695828  0.78252451     1.02200
O95         O  0.18320104  0.47589077  0.76932226    -0.78200
O96         O  0.15435496  0.48572419  0.84692012    -0.78400
C97         C  0.14163277  0.50596073  0.87813628     1.02200
O98         O  0.11043658  0.60990246  0.79558008    -0.85800
O99         O  0.15605831  0.67514191  0.81279913    -0.82800
C100        C  0.16631267  0.68641300  0.77562730     0.97700
O101        O  0.17357174  0.65145185  0.74992301    -0.82800
O102        O  0.18249242  0.55714730  0.71389138    -0.85500
C103        C  0.16006469  0.53963912  0.69688979     1.02200
O104        O  0.14084450  0.52859618  0.72169359    -0.78300
O105        O  0.10871705  0.52677483  0.79363496    -0.78400
C106        C  0.09704277  0.56942596  0.78818248     1.02200
Cr107      Cr  0.14353093  0.60700072  0.83673568     1.93700
Cr108      Cr  0.19126479  0.58989038  0.77504469     1.93200
Cr109      Cr  0.14770338  0.50838934  0.78425924     1.39100
O110        O  0.16092911  0.56882658  0.79836559    -1.23500
O111        O  0.33765107  0.93065731  0.15870395    -0.85800
O112        O  0.30793547  0.94367710  0.23373978    -0.82800
C113        C  0.28402900  0.93220894  0.21975957     0.97700
O114        O  0.27834771  0.88763905  0.20726980    -0.82800
O115        O  0.28567563  0.78912717  0.17733274    -0.85500
C116        C  0.29359819  0.79084309  0.13709524     1.02200
O117        O  0.31639030  0.80934856  0.12904879    -0.78200
O118        O  0.36158965  0.86662383  0.13506778    -0.78400
C119        C  0.34960236  0.90876545  0.12750365     1.02200
O120        O  0.38260017  0.89011589  0.21372033    -0.85800
O121        O  0.34938617  0.89138662  0.28555136    -0.82800
C122        C  0.32993838  0.88052586  0.31011962     0.97700
O123        O  0.30725045  0.86521754  0.29255873    -0.82800
O124        O  0.31712223  0.77048002  0.26100834    -0.85500
C125        C  0.32365305  0.73376861  0.23686248     1.02200
O126        O  0.33433543  0.74239348  0.19945786    -0.78300
O127        O  0.37995534  0.80714070  0.21362459    -0.78400
C128        C  0.39392187  0.84712185  0.21904235     1.02200
Cr129      Cr  0.34350257  0.90976619  0.22192410     1.93700
Cr130      Cr  0.29925632  0.82955301  0.23273242     1.93200
Cr131      Cr  0.34713448  0.80902334  0.17247880     1.39100
O132        O  0.32982193  0.84928540  0.20915644    -1.23500
O133        O  0.15475570  0.42713352  0.34914349    -0.85800
O134        O  0.18310717  0.44213486  0.27335250    -0.82800
C135        C  0.20732999  0.42986012  0.28458395     0.97700
O136        O  0.21313117  0.38470287  0.29488930    -0.82800
O137        O  0.20568812  0.28624684  0.32451417    -0.85500
C138        C  0.19919041  0.28881384  0.36549067     1.02200
O139        O  0.17645480  0.30614031  0.37565165    -0.78200
O140        O  0.13079442  0.36336816  0.37327005    -0.78400
C141        C  0.14300954  0.40536788  0.38054420     1.02200
O142        O  0.10876655  0.38833034  0.29546235    -0.85800
O143        O  0.14033661  0.39192425  0.22238750    -0.82800
C144        C  0.15919500  0.38193559  0.19651493     0.97700
O145        O  0.18181274  0.36439527  0.21211241    -0.82800
O146        O  0.17198795  0.26870204  0.24281574    -0.85500
C147        C  0.16607168  0.23199419  0.26742478     1.02200
O148        O  0.15637404  0.24054906  0.30559816    -0.78300
O149        O  0.11033493  0.30524377  0.29497143    -0.78400
C150        C  0.09694280  0.34584935  0.28908661     1.02200
Cr151      Cr  0.14764931  0.40802946  0.28601339     1.93700
Cr152      Cr  0.19093587  0.32733649  0.27055201     1.93200
Cr153      Cr  0.14440423  0.30651411  0.33414427     1.39100
O154        O  0.16113289  0.34713231  0.29672315    -1.23500
O155        O  0.35688789  0.04594569  0.63409221    -0.85800
O156        O  0.31204494  0.10566545  0.62781653    -0.82800
C157        C  0.29004333  0.12655183  0.63734167     0.97700
O158        O  0.28398276  0.13272231  0.67837097    -0.82800
O159        O  0.27451318  0.03835522  0.71599638    -0.85500
C160        C  0.27943746  0.99343920  0.72835368     1.02200
O161        O  0.30352876  0.98010877  0.73942447    -0.78200
O162        O  0.33106753  0.98639565  0.66065018    -0.78400
C163        C  0.34381478  0.00465549  0.62859912     1.02200
O164        O  0.37869216  0.10921561  0.70717739    -0.85800
O165        O  0.33401951  0.17600154  0.69196146    -0.82800
C166        C  0.32543345  0.18964461  0.72969616     0.97700
O167        O  0.31895388  0.15653601  0.75772639    -0.82800
O168        O  0.30795109  0.06376197  0.79645043    -0.85500
C169        C  0.33024098  0.04409809  0.81157697     1.02200
O170        O  0.34813921  0.03080178  0.78500963    -0.78300
O171        O  0.37895449  0.02616128  0.71157524    -0.78400
C172        C  0.39159057  0.06835345  0.71479996     1.02200
Cr173      Cr  0.34441943  0.10685902  0.66870490     1.93700
Cr174      Cr  0.29848194  0.09610510  0.73528340     1.93200
Cr175      Cr  0.33951569  0.01017743  0.72294338     1.39100
O176        O  0.32730376  0.07126711  0.70927645    -1.23500
C177        C  0.21699059  0.26928138  0.40282837    -0.01700
C178        C  0.21771838  0.29527368  0.44406306    -0.09700
C179        C  0.22914279  0.27313568  0.48309283    -0.18600
C180        C  0.23992820  0.22350358  0.48230522     0.03800
C181        C  0.24085521  0.19851386  0.43975397     0.18000
C182        C  0.22936517  0.22151982  0.40042568    -0.20000
C183        C  0.25267150  0.15032205  0.43704271    -0.21200
C184        C  0.26380750  0.12667750  0.47558009    -0.19800
C185        C  0.26253973  0.14984684  0.51800289     0.19400
C186        C  0.24990536  0.19795890  0.52219432     0.01500
C187        C  0.24752119  0.21806438  0.56621441    -0.14500
C188        C  0.25882427  0.19294557  0.60414296    -0.12200
C189        C  0.27301679  0.14742715  0.59937578     0.01100
C190        C  0.27421609  0.12551725  0.55628410    -0.24400
H191        H  0.20847938  0.33249509  0.44640460     0.09100
H192        H  0.22894691  0.29562927  0.51345573     0.12600
H193        H  0.22869932  0.20114533  0.36857814     0.11400
H194        H  0.25352253  0.13097875  0.40485450     0.12600
H195        H  0.27325103  0.08976425  0.47224636     0.11600
H196        H  0.23713289  0.25322276  0.57243768     0.08700
H197        H  0.25759933  0.21048978  0.63704148     0.11900
H198        H  0.28491006  0.08986919  0.55240994     0.13800
C199        C  0.22903889  0.46818378  0.28231413    -0.01700
C200        C  0.24741971  0.46588782  0.24776422    -0.09700
C201        C  0.26606697  0.50528507  0.24173943    -0.18600
C202        C  0.26697971  0.54817543  0.27062160     0.03800
C203        C  0.24901199  0.54879737  0.30698141     0.18000
C204        C  0.23009394  0.50932081  0.31212026    -0.20000
C205        C  0.24952802  0.58944597  0.33738226    -0.21200
C206        C  0.26685185  0.63044038  0.33173008    -0.19800
C207        C  0.28382026  0.63222506  0.29513243     0.19400
C208        C  0.28442029  0.59104968  0.26418942     0.01500
C209        C  0.30159582  0.59576450  0.22728960    -0.14500
C210        C  0.31609274  0.64077647  0.21997333    -0.12200
C211        C  0.31443684  0.68204883  0.24962218     0.01100
C212        C  0.29913883  0.67632116  0.28818190    -0.24400
H213        H  0.24670501  0.43423120  0.22434152     0.09100
H214        H  0.27926359  0.50139093  0.21392913     0.12600
H215        H  0.21583991  0.51090578  0.33894089     0.11400
H216        H  0.23611604  0.58992030  0.36537668     0.12600
H217        H  0.26636450  0.66174989  0.35545348     0.11600
H218        H  0.30330268  0.56621138  0.20240763     0.08700
H219        H  0.32755916  0.64410799  0.18980592     0.11900
H220        H  0.29754590  0.70781792  0.31151334     0.13800
C221        C  0.26228409  0.97001597  0.22246576    -0.01700
C222        C  0.24581004  0.96955041  0.25957674    -0.09700
C223        C  0.22674989  0.00796330  0.26551772    -0.18600
C224        C  0.22361933  0.04825216  0.23417806     0.03800
C225        C  0.23977965  0.04717208  0.19551582     0.18000
C226        C  0.25903075  0.00837668  0.19018127    -0.20000
C227        C  0.23713543  0.08554075  0.16304499    -0.21200
C228        C  0.21955796  0.12608809  0.16889640    -0.19800
C229        C  0.20434223  0.12953196  0.20755187     0.19400
C230        C  0.20576067  0.09032851  0.24045691     0.01500
C231        C  0.19010172  0.09616397  0.27903804    -0.14500
C232        C  0.17526229  0.14057690  0.28607124    -0.12200
C233        C  0.17515235  0.18031750  0.25469759     0.01100
C234        C  0.18882113  0.17336438  0.21456050    -0.24400
H235        H  0.24823498  0.93994321  0.28479216     0.09100
H236        H  0.21507937  0.00540753  0.29530487     0.12600
H237        H  0.27186760  0.00848856  0.16139277     0.13000
H238        H  0.24915090  0.08470856  0.13331858     0.12600
H239        H  0.21846230  0.15577892  0.14358880     0.11600
H240        H  0.18980328  0.06804554  0.30538908     0.08700
H241        H  0.16507392  0.14488866  0.31744593     0.11900
H242        H  0.18899002  0.20376256  0.18991947     0.13800
C243        C  0.33365029  0.88904479  0.35937277    -0.01700
C244        C  0.35885475  0.90655726  0.37721627    -0.09700
C245        C  0.36230886  0.92038751  0.42234507    -0.18600
C246        C  0.34047263  0.91758437  0.45150573     0.03800
C247        C  0.31543904  0.89645290  0.43428283     0.18000
C248        C  0.31220526  0.88251181  0.38847563    -0.20000
C249        C  0.29362747  0.89077433  0.46261714    -0.21200
C250        C  0.29585143  0.90734023  0.50726507    -0.19800
C251        C  0.31974436  0.93092957  0.52437035     0.19400
C252        C  0.34244459  0.93620219  0.49672037     0.01500
C253        C  0.36573684  0.96206501  0.51480429    -0.14500
C254        C  0.36615454  0.98315210  0.55786481    -0.12200
C255        C  0.34377312  0.97821370  0.58482874     0.01100
C256        C  0.32080262  0.95103874  0.56839895    -0.24400
H257        H  0.37603181  0.91082107  0.35592546     0.09100
H258        H  0.38231578  0.93359336  0.43312703     0.12600
H259        H  0.29275470  0.86810380  0.37524957     0.11400
H260        H  0.27458590  0.87411326  0.44997828     0.12600
H261        H  0.27847453  0.90305664  0.52814793     0.11600
H262        H  0.38367419  0.96834222  0.49605953     0.08700
H263        H  0.38407367  0.00395395  0.57003756     0.11900
H264        H  0.30324640  0.94774037  0.58906158     0.13800
C265        C  0.33529569  0.03194440  0.86003730    -0.01700
C266        C  0.35858572  0.00374593  0.87300787    -0.09700
C267        C  0.36264152  0.98555581  0.91671378    -0.18600
C268        C  0.34351608  0.99507170  0.94960673     0.03800
C269        C  0.32083695  0.02662736  0.93749430     0.18000
C270        C  0.31674662  0.04433466  0.89282718    -0.20000
C271        C  0.30220146  0.03945397  0.96989504    -0.21200
C272        C  0.30535920  0.02088093  0.01375796    -0.19800
C273        C  0.32680655  0.98791055  0.02596838     0.19400
C274        C  0.34606643  0.97410217  0.99394814     0.01500
C275        C  0.36653547  0.93861472  0.00727980    -0.14500
C276        C  0.36781195  0.91786180  0.05060058    -0.12200
C277        C  0.34910845  0.93230831  0.08226327     0.01100
C278        C  0.32876437  0.96769445  0.06978532    -0.24400
H279        H  0.37362480  0.99415065  0.84883981     0.09100
H280        H  0.38099538  0.96407351  0.92357968     0.12600
H281        H  0.29888753  0.06672770  0.88344197     0.11400
H282        H  0.28502505  0.06387681  0.96123244     0.12600
H283        H  0.29056174  0.03148299  0.03804847     0.11600
H284        H  0.38144594  0.92499228  0.98470211     0.08700
H285        H  0.38349930  0.89025513  0.05931524     0.11900
H286        H  0.31381447  0.97834468  0.09383859     0.13800
C287        C  0.27782926  0.76816329  0.09847763    -0.01700
C288        C  0.28582914  0.77897433  0.05470250    -0.09700
C289        C  0.27466899  0.75300493  0.01752261    -0.18600
C290        C  0.25476507  0.71515419  0.02262125     0.03800
C291        C  0.24549595  0.70603336  0.06668525     0.18000
C292        C  0.25725024  0.73218245  0.10425439    -0.20000
C293        C  0.22458764  0.67090448  0.07280585    -0.21200
C294        C  0.21220714  0.64579947  0.03593959    -0.19800
C295        C  0.22103496  0.65406176  0.99229363     0.19400
C296        C  0.24313236  0.68735733  0.98522505     0.01500
C297        C  0.25243671  0.69179993  0.94089993    -0.14500
C298        C  0.23859399  0.66820474  0.90445192    -0.12200
C299        C  0.21532676  0.63911421  0.91110764     0.01100
C300        C  0.20737895  0.63041057  0.95539461    -0.24400
H301        H  0.30138512  0.80718878  0.04903295     0.09100
H302        H  0.28187687  0.76392008  0.98518367     0.12600
H303        H  0.25089044  0.72361432  0.13792084     0.11400
H304        H  0.21736752  0.66362953  0.10615989     0.12600
H305        H  0.19552036  0.61993819  0.04157097     0.11600
H306        H  0.27014961  0.71372752  0.93318017     0.08700
H307        H  0.24554340  0.67441744  0.87077561     0.11900
H308        H  0.18983620  0.60662744  0.96114141     0.13800
C309        C  0.14186602  0.48191868  0.92272342    -0.01700
C310        C  0.12000293  0.48843470  0.95054924    -0.09700
C311        C  0.12117791  0.46930223  0.99434858    -0.18600
C312        C  0.14473220  0.44402206  0.01200025     0.03800
C313        C  0.16687900  0.43761080  0.98338675     0.18000
C314        C  0.16503916  0.45566453  0.93894050    -0.20000
C315        C  0.19101360  0.41455937  0.99965117    -0.21200
C316        C  0.19384431  0.39838159  0.04417524    -0.19800
C317        C  0.17243725  0.40409581  0.07321733     0.19400
C318        C  0.14739816  0.42619438  0.05731989     0.01500
C319        C  0.12620293  0.43002127  0.08764819    -0.14500
C320        C  0.13003192  0.41429295  0.13218496    -0.12200
C321        C  0.15501385  0.39411098  0.14817646     0.01100
C322        C  0.17604277  0.38844547  0.11832085    -0.24400
H323        H  0.10196775  0.50878232  0.93845704     0.09100
H324        H  0.10359643  0.47621415  0.01377636     0.12600
H325        H  0.18220266  0.45136224  0.91755497     0.11400
H326        H  0.20799579  0.40981023  0.97800181     0.12600
H327        H  0.21294246  0.38144684  0.05601496     0.11600
H328        H  0.10641521  0.44510745  0.07819697     0.08700
H329        H  0.11331262  0.41876271  0.15440091     0.11900
H330        H  0.19541372  0.37271804  0.13034203     0.13800
C331        C  0.14426476  0.42917086  0.42555799    -0.01700
C332        C  0.16555097  0.46298523  0.43686657    -0.09700
C333        C  0.16822404  0.48457340  0.47965609    -0.18600
C334        C  0.14942112  0.47331330  0.51276083     0.03800
C335        C  0.12726046  0.44029740  0.50063111     0.18000
C336        C  0.12508761  0.41804372  0.45751474    -0.20000
C337        C  0.10751803  0.42947834  0.53169320    -0.21200
C338        C  0.10954308  0.45003718  0.57485759    -0.19800
C339        C  0.13164082  0.48108548  0.58823104     0.19400
C340        C  0.15195187  0.49322966  0.55751637     0.01500
C341        C  0.17425171  0.52361630  0.57337988    -0.14500
C342        C  0.17657809  0.54000529  0.61820907    -0.12200
C343        C  0.15662341  0.52738521  0.64834554     0.01100
C344        C  0.13391916  0.49881070  0.63272592    -0.24400
H345        H  0.18066271  0.47215336  0.41266981     0.09100
H346        H  0.18521009  0.50997822  0.48562506     0.12600
H347        H  0.10841358  0.39230273  0.44874992     0.11400
H348        H  0.09045400  0.40479122  0.52260942     0.12600
H349        H  0.09399912  0.44071839  0.59826419     0.11600
H350        H  0.19064380  0.53420616  0.55242914     0.08700
H351        H  0.19431775  0.56184485  0.62948793     0.11900
H352        H  0.11834945  0.48842530  0.65577165     0.13800
C353        C  0.25706450  0.95606314  0.73121601    -0.01700
C354        C  0.24957349  0.92577450  0.69395869    -0.09700
C355        C  0.23071948  0.88619032  0.69767038    -0.18600
C356        C  0.21891557  0.87522514  0.73928926     0.03800
C357        C  0.22581074  0.90756587  0.77658696     0.18000
C358        C  0.24467236  0.94758338  0.77220116    -0.20000
C359        C  0.21469090  0.89846506  0.81848445    -0.21200
C360        C  0.19815768  0.85624124  0.82493044    -0.19800
C361        C  0.19215695  0.82205024  0.78959823     0.19400
C362        C  0.20168266  0.83198923  0.74587077     0.01500
C363        C  0.19461761  0.79679395  0.71120368    -0.14500
C364        C  0.18103292  0.75153443  0.72045626    -0.12200
C365        C  0.17353722  0.73980964  0.76430480     0.01100
C366        C  0.17801901  0.77653826  0.79831867    -0.24400
H367        H  0.25895948  0.93186981  0.66206433     0.09100
H368        H  0.22643145  0.86395111  0.66766618     0.12600
H369        H  0.25049735  0.97105479  0.80115337     0.11400
H370        H  0.21955255  0.92326609  0.84693376     0.12600
H371        H  0.19072983  0.84940834  0.85822152     0.11600
H372        H  0.20024307  0.80214157  0.67686701     0.08700
H373        H  0.17758284  0.72429309  0.69336896     0.11900
H374        H  0.17241246  0.76806092  0.83242426     0.13800
C375        C  0.31745333  0.24311706  0.73712875    -0.01700
C376        C  0.31742434  0.26404427  0.78060464    -0.09700
C377        C  0.30326128  0.30915738  0.78871751    -0.18600
C378        C  0.28739881  0.33310959  0.75379525     0.03800
C379        C  0.28804090  0.31201143  0.70966113     0.18000
C380        C  0.30389577  0.26896100  0.70151214    -0.20000
C381        C  0.27124462  0.33148920  0.67446866    -0.21200
C382        C  0.25256890  0.36950796  0.68265068    -0.19800
C383        C  0.25108796  0.39059778  0.72576467     0.19400
C384        C  0.26942398  0.37475193  0.76147868     0.01500
C385        C  0.26835112  0.40051116  0.80337085    -0.14500
C386        C  0.24873618  0.43816896  0.81006931    -0.12200
C387        C  0.22932795  0.45011715  0.77570274     0.01100
C388        C  0.23097170  0.42690656  0.73348121    -0.24400
H389        H  0.32743659  0.24427197  0.80873321     0.09100
H390        H  0.30349160  0.32237506  0.82315615     0.12600
H391        H  0.30326022  0.25235507  0.66797808     0.11400
H392        H  0.27156840  0.31542754  0.64081510     0.12600
H393        H  0.23896342  0.38213092  0.65513113     0.11600
H394        H  0.28246037  0.39238718  0.83134464     0.08700
H395        H  0.24817888  0.45682423  0.84258733     0.11900
H396        H  0.21650974  0.43744751  0.70635928     0.13800
C397        C  0.92410405  0.34752878  0.22303283    -0.01700
C398        C  0.93896963  0.39301866  0.22259503    -0.09700
C399        C  0.96697556  0.39382499  0.23209965    -0.18600
C400        C  0.98148384  0.34882872  0.24283185     0.03800
C401        C  0.96660923  0.30240760  0.24273740     0.18000
C402        C  0.93816756  0.30207486  0.23283304    -0.20000
C403        C  0.98026515  0.25676770  0.25264459    -0.21200
C404        C  0.00828997  0.25629270  0.26276742    -0.19800
C405        C  0.02345559  0.30147840  0.26358223     0.19400
C406        C  0.01018125  0.34841060  0.25370654     0.01500
C407        C  0.02617227  0.39309144  0.25555171    -0.14500
C408        C  0.05399285  0.39137459  0.26669691    -0.12200
C409        C  0.06723492  0.34527420  0.27640970     0.01100
C410        C  0.05177200  0.30021748  0.27455825    -0.24400
H411        H  0.92891241  0.42869695  0.21463586     0.09100
H412        H  0.97659273  0.43050777  0.23065724     0.12600
H413        H  0.92700205  0.26653857  0.23306926     0.11400
H414        H  0.96918684  0.22113843  0.25259997     0.12600
H415        H  0.01815005  0.22029450  0.27028109     0.11600
H416        H  0.01784976  0.43026678  0.24892749     0.08700
H417        H  0.06521390  0.42685247  0.26774166     0.11900
H418        H  0.06166725  0.26426375  0.28215160     0.13800
C419        C  0.56549409  0.06891405  0.77514206    -0.01700
C420        C  0.55132113  0.02265347  0.77140721    -0.09700
C421        C  0.52334850  0.02109820  0.76108280    -0.18600
C422        C  0.50813511  0.06609900  0.75394089     0.03800
C423        C  0.52250523  0.11308799  0.75628731     0.18000
C424        C  0.55088631  0.11417578  0.76699787    -0.20000
C425        C  0.50837034  0.15861561  0.74813338    -0.21200
C426        C  0.48033899  0.15849473  0.73803442    -0.19800
C427        C  0.46551190  0.11290916  0.73636585     0.19400
C428        C  0.47922677  0.06605314  0.74454110     0.01500
C429        C  0.46333309  0.02117980  0.74346012    -0.14500
C430        C  0.43522767  0.02262279  0.73415546    -0.12200
C431        C  0.42162949  0.06863470  0.72549546     0.01100
C432        C  0.43703373  0.11382392  0.72678016    -0.24400
H433        H  0.56187548  0.98695480  0.77692141     0.09100
H434        H  0.51427485  0.98385496  0.75890061     0.12600
H435        H  0.56151472  0.15026518  0.76932597     0.11400
H436        H  0.51907696  0.19464361  0.74956696     0.12600
H437        H  0.47013089  0.19445463  0.73185742     0.11600
H438        H  0.47193661  0.98417131  0.75000816     0.08700
H439        H  0.42406396  0.98709378  0.73373866     0.11900
H440        H  0.42688604  0.14979820  0.72032262     0.13800
C441        C  0.71170167  0.14588787  0.91113683    -0.01700
C442        C  0.70437336  0.13377276  0.95500106    -0.09700
C443        C  0.71611337  0.15883840  0.99229714    -0.18600
C444        C  0.73569582  0.19733723  0.98703682     0.03800
C445        C  0.74392514  0.20809901  0.94260067     0.18000
C446        C  0.73201233  0.18217891  0.90519040    -0.20000
C447        C  0.76356827  0.24541547  0.93571345    -0.21200
C448        C  0.77535344  0.27215923  0.97201185    -0.19800
C449        C  0.76766175  0.26237923  0.01603130     0.19400
C450        C  0.74748771  0.22530281  0.02424904     0.01500
C451        C  0.74015860  0.21770341  0.06940594    -0.14500
C452        C  0.75346057  0.24373973  0.10503097    -0.12200
C453        C  0.77430996  0.27819691  0.09680960     0.01100
C454        C  0.78064792  0.28855047  0.05208387    -0.24400
H455        H  0.68885001  0.10546059  0.96056181     0.09100
H456        H  0.70914494  0.14747223  0.02469173     0.12600
H457        H  0.73765765  0.19192314  0.87135178     0.11400
H458        H  0.76990662  0.25391488  0.90201915     0.12600
H459        H  0.79071553  0.30051694  0.96563490     0.11600
H460        H  0.72461759  0.19122097  0.07852815     0.08700
H461        H  0.74817035  0.23520799  0.13925774     0.11900
H462        H  0.79655672  0.31573271  0.04530905     0.13800
C463        C  0.56690097  0.84165656  0.27755159    -0.01700
C464        C  0.55295041  0.79521204  0.27607656    -0.09700
C465        C  0.52495345  0.79342032  0.26502682    -0.18600
C466        C  0.51000663  0.83836307  0.25517126     0.03800
C467        C  0.52456849  0.88506377  0.25529223     0.18000
C468        C  0.55258747  0.88621308  0.26618614    -0.20000
C469        C  0.51105618  0.93070251  0.24538629    -0.21200
C470        C  0.48311749  0.93129497  0.23636883    -0.19800
C471        C  0.46800547  0.88624766  0.23694522     0.19400
C472        C  0.48117345  0.83898681  0.24586467     0.01500
C473        C  0.46479500  0.79470762  0.24562919    -0.14500
C474        C  0.43659201  0.79742594  0.23723096    -0.12200
C475        C  0.42373819  0.84419444  0.22892514     0.01100
C476        C  0.43968720  0.88840389  0.22877965    -0.24400
H477        H  0.56359173  0.76018968  0.28428690     0.09100
H478        H  0.51555094  0.75642675  0.26506088     0.12600
H479        H  0.56320926  0.92236805  0.26651361     0.11400
H480        H  0.52213200  0.96634651  0.24518182     0.12600
H481        H  0.47321642  0.96736346  0.22929785     0.11600
H482        H  0.47314135  0.75743753  0.25190051     0.08700
H483        H  0.42479424  0.76263367  0.23730216     0.11900
H484        H  0.43006482  0.92481604  0.22203082     0.13800
C485        C  0.76235628  0.47154595  0.22655744    -0.01700
C486        C  0.74478355  0.46899297  0.26226548    -0.09700
C487        C  0.72576080  0.50752033  0.26888859    -0.18600
C488        C  0.72360592  0.54973588  0.23943886     0.03800
C489        C  0.74036795  0.55012316  0.20150919     0.18000
C490        C  0.75981313  0.51170255  0.19588386    -0.20000
C491        C  0.73802858  0.58942188  0.16990457    -0.21200
C492        C  0.72018308  0.62947420  0.17596185    -0.19800
C493        C  0.70479738  0.63204841  0.21445913     0.19400
C494        C  0.70605677  0.59216656  0.24670892     0.01500
C495        C  0.69081276  0.59797559  0.28581215    -0.14500
C496        C  0.67639124  0.64285626  0.29371364    -0.12200
C497        C  0.67615051  0.68286587  0.26252372     0.01100
C498        C  0.68943189  0.67590110  0.22203283    -0.24400
H499        H  0.74636395  0.43775150  0.28599066     0.09100
H500        H  0.71314335  0.50342077  0.29743907     0.12600
H501        H  0.77319604  0.51322373  0.16784175     0.11400
H502        H  0.75038438  0.58956549  0.14056976     0.12600
H503        H  0.71922797  0.65973026  0.15119600     0.11600
H504        H  0.69082125  0.56962911  0.31200915     0.08700
H505        H  0.66657798  0.64720739  0.32543117     0.11900
H506        H  0.68954400  0.70643642  0.19753873     0.13800
C507        C  0.72478709  0.97536492  0.27643458    -0.01700
C508        C  0.74655451  0.98441476  0.30753167    -0.09700
C509        C  0.76552396  0.02300885  0.29981739    -0.18600
C510        C  0.76354432  0.05281491  0.26001778     0.03800
C511        C  0.74236192  0.04083720  0.22742802     0.18000
C512        C  0.72305671  0.00329749  0.23629657    -0.20000
C513        C  0.74035614  0.06665624  0.18622562    -0.21200
C514        C  0.75863919  0.10506736  0.17688454    -0.19800
C515        C  0.77879912  0.11981965  0.20915053     0.19400
C516        C  0.78146750  0.09435989  0.25140835     0.01500
C517        C  0.80095958  0.11343572  0.28387698    -0.14500
C518        C  0.81609553  0.15737357  0.27540470    -0.12200
C519        C  0.81333088  0.18192741  0.23364504     0.01100
C520        C  0.79532002  0.16183301  0.20021074    -0.24400
H521        H  0.74851992  0.96242095  0.33834380     0.09100
H522        H  0.78163542  0.02842678  0.32529781     0.12600
H523        H  0.70668491  0.99526461  0.21149462     0.11400
H524        H  0.72444447  0.05720082  0.16106966     0.12600
H525        H  0.75639076  0.12456996  0.14476189     0.11600
H526        H  0.80381109  0.09689341  0.31698245     0.08700
H527        H  0.82946934  0.17303379  0.30196853     0.11900
H528        H  0.79249573  0.18162735  0.16828743     0.13800
C529        C  0.65108854  0.89269864  0.15192868    -0.01700
C530        C  0.62904213  0.92442431  0.13980979    -0.09700
C531        C  0.62496642  0.94185801  0.09595487    -0.18600
C532        C  0.64278801  0.92778253  0.06234384     0.03800
C533        C  0.66354694  0.89170417  0.07357167     0.18000
C534        C  0.66792789  0.87529205  0.11843300    -0.20000
C535        C  0.67992140  0.87295053  0.04002061    -0.21200
C536        C  0.67649920  0.89029740  0.99584327    -0.19800
C537        C  0.65751295  0.92846133  0.98475329     0.19400
C538        C  0.64070543  0.94841450  0.01804339     0.01500
C539        C  0.62338013  0.98967643  0.00612026    -0.14500
C540        C  0.62247347  0.00966136  0.96256379    -0.12200
C541        C  0.63846571  0.98878888  0.92950082     0.01100
C542        C  0.65581360  0.94793759  0.94083095    -0.24400
H543        H  0.61521978  0.93750697  0.16474340     0.09100
H544        H  0.60760608  0.96614033  0.08936641     0.12600
H545        H  0.68449114  0.84949905  0.12730325     0.11400
H546        H  0.69543925  0.84474986  0.04797821     0.12600
H547        H  0.68942301  0.87499681  0.97050285     0.11600
H548        H  0.61102632  0.00853955  0.03010600     0.08700
H549        H  0.60937398  0.04185187  0.95488396     0.11900
H550        H  0.66880633  0.93222833  0.91575381     0.13800
C551        C  0.63877699  0.93628519  0.42671371    -0.01700
C552        C  0.65439598  0.98001663  0.43586900    -0.09700
C553        C  0.65666580  0.00029102  0.47931368    -0.18600
C554        C  0.64334531  0.97717777  0.51514801     0.03800
C555        C  0.62591540  0.93508195  0.50487610     0.18000
C556        C  0.62392150  0.91496155  0.46109002    -0.20000
C557        C  0.61115766  0.91234102  0.53860788    -0.21200
C558        C  0.61396590  0.92951504  0.58277749    -0.19800
C559        C  0.63212192  0.96891340  0.59434977     0.19400
C560        C  0.64713049  0.99346152  0.56088201     0.01500
C561        C  0.66607665  0.03161777  0.57503069    -0.14500
C562        C  0.67020171  0.04405730  0.62068008    -0.12200
C563        C  0.65518012  0.01971990  0.65318177     0.01100
C564        C  0.63591682  0.98278819  0.63962745    -0.24400
H565        H  0.66570568  0.99780939  0.40965045     0.09100
H566        H  0.66923745  0.03363491  0.48385937     0.12600
H567        H  0.61136136  0.88170376  0.45411834     0.11400
H568        H  0.59760646  0.88065668  0.53088531     0.12600
H569        H  0.60246038  0.91082236  0.60830882     0.11600
H570        H  0.67852990  0.05149969  0.55186032     0.08700
H571        H  0.68509790  0.07284801  0.63055570     0.11900
H572        H  0.62437715  0.96333421  0.66471761     0.13800
C573        C  0.92392581  0.57146396  0.72944641    -0.01700
C574        C  0.93787934  0.52510695  0.73307498    -0.09700
C575        C  0.96590160  0.52351789  0.74206305    -0.18600
C576        C  0.98129061  0.56857789  0.74792035     0.03800
C577        C  0.96710240  0.61564274  0.74608326     0.18000
C578        C  0.93868949  0.61676342  0.73652972    -0.20000
C579        C  0.98141552  0.66114576  0.75381563    -0.21200
C580        C  0.00945039  0.66086653  0.76351582    -0.19800
C581        C  0.02404381  0.61516773  0.76471002     0.19400
C582        C  0.01018265  0.56844707  0.75609605     0.01500
C583        C  0.02587631  0.52354981  0.75562847    -0.14500
C584        C  0.05386881  0.52469285  0.76521415    -0.12200
C585        C  0.06744947  0.57043535  0.77551684     0.01100
C586        C  0.05241064  0.61578413  0.77456701    -0.24400
H587        H  0.92712022  0.48938378  0.72849990     0.09100
H588        H  0.97482198  0.48623031  0.74459060     0.12600
H589        H  0.92813707  0.65287750  0.73439081     0.11400
H590        H  0.97081386  0.69722642  0.75273001     0.12600
H591        H  0.01982351  0.69671110  0.76982626     0.11600
H592        H  0.01721794  0.48682625  0.74767722     0.08700
H593        H  0.06491541  0.48913129  0.76481276     0.11900
H594        H  0.06269470  0.65150262  0.78195481     0.13800
C595        C  0.77682634  0.64610788  0.59652953    -0.01700
C596        C  0.78106201  0.62813623  0.55293735    -0.09700
C597        C  0.76897172  0.65190505  0.51527892    -0.18600
C598        C  0.75238349  0.69511505  0.52004623     0.03800
C599        C  0.74684384  0.71136174  0.56451190     0.18000
C600        C  0.75905022  0.68677165  0.60226243    -0.20000
C601        C  0.72961957  0.75270099  0.57099012    -0.21200
C602        C  0.71767685  0.77821285  0.53421090    -0.19800
C603        C  0.72322613  0.76375976  0.49013695     0.19400
C604        C  0.74105892  0.72264095  0.48231740     0.01500
C605        C  0.74693138  0.71122248  0.43708821    -0.14500
C606        C  0.73432886  0.73765059  0.40110108    -0.12200
C607        C  0.71557207  0.77606097  0.40908322     0.01100
C608        C  0.71065354  0.78975333  0.45371117    -0.24400
H609        H  0.79444097  0.59613688  0.54783495     0.09100
H610        H  0.77322271  0.63579999  0.48296952     0.12600
H611        H  0.75576250  0.70083122  0.63595127     0.11400
H612        H  0.72525882  0.76523418  0.60470848     0.12600
H613        H  0.70413694  0.80970839  0.54028685     0.11600
H614        H  0.76098906  0.68186105  0.42834298     0.08700
H615        H  0.73837225  0.72643468  0.36690367     0.11900
H616        H  0.69634051  0.81995190  0.46015106     0.13800
C617        C  0.84980754  0.49082307  0.57778975    -0.01700
C618        C  0.87312516  0.48829773  0.55274762    -0.09700
C619        C  0.87183194  0.46662543  0.50964902    -0.18600
C620        C  0.84684349  0.44815909  0.49014477     0.03800
C621        C  0.82314513  0.45286804  0.51549950     0.18000
C622        C  0.82496871  0.47305431  0.55911554    -0.20000
C623        C  0.79764686  0.43813849  0.49704035    -0.21200
C624        C  0.79502709  0.41910782  0.45344855    -0.19800
C625        C  0.81794074  0.41322376  0.42776040     0.19400
C626        C  0.84428296  0.42658476  0.44602284     0.01500
C627        C  0.86681202  0.41821335  0.41910046    -0.14500
C628        C  0.86308022  0.40069589  0.37488858    -0.12200
C629        C  0.83690893  0.39039665  0.35632102     0.01100
C630        C  0.81452428  0.39522845  0.38338719    -0.24400
H631        H  0.89242888  0.50237959  0.56682695     0.09100
H632        H  0.89055937  0.46577188  0.49217239     0.12600
H633        H  0.80679146  0.47617234  0.57835876     0.11400
H634        H  0.77952365  0.44213408  0.51621050     0.12600
H635        H  0.77492644  0.40896666  0.43971213     0.11600
H636        H  0.88750552  0.42536174  0.43103049     0.08700
H637        H  0.88076855  0.39636802  0.35475044     0.11900
H638        H  0.79421972  0.38719197  0.36927472     0.13800
C639        C  0.84731050  0.43573275  0.07944639    -0.01700
C640        C  0.86894902  0.42879685  0.05127673    -0.09700
C641        C  0.86752157  0.44743305  0.00740744    -0.18600
C642        C  0.84399788  0.47296784  0.99005573     0.03800
C643        C  0.82176520  0.47877929  0.01856993     0.18000
C644        C  0.82380319  0.46099514  0.06315011    -0.20000
C645        C  0.79751366  0.50134925  0.00212900    -0.21200
C646        C  0.79478210  0.51794435  0.95765251    -0.19800
C647        C  0.81643859  0.51331678  0.92892615     0.19400
C648        C  0.84154166  0.49171992  0.94509207     0.01500
C649        C  0.86316362  0.48965990  0.91551176    -0.14500
C650        C  0.85960053  0.50576375  0.87114596    -0.12200
C651        C  0.83446264  0.52462071  0.85453817     0.01100
C652        C  0.81308117  0.52941313  0.88387275    -0.24400
H653        H  0.88709551  0.40870712  0.06325095     0.09100
H654        H  0.88494212  0.44001488  0.98772723     0.12600
H655        H  0.80670574  0.46514717  0.08470665     0.11400
H656        H  0.78041466  0.50552319  0.02362154     0.12600
H657        H  0.77562107  0.53451553  0.94565613     0.11600
H658        H  0.88314634  0.47582417  0.92545368     0.08700
H659        H  0.87666226  0.50243487  0.84948513     0.11900
H660        H  0.79363623  0.54445157  0.87142004     0.13800
C661        C  0.81544250  0.73753754  0.74664392    -0.01700
C662        C  0.81287792  0.77617233  0.71420732    -0.09700
C663        C  0.79817637  0.82055365  0.72268086    -0.18600
C664        C  0.78506890  0.82736624  0.76383774     0.03800
C665        C  0.78871357  0.78902899  0.79723412     0.18000
C666        C  0.80426136  0.74553634  0.78881486    -0.20000
C667        C  0.77542642  0.79265452  0.83787337    -0.21200
C668        C  0.75725027  0.83197427  0.84507026    -0.19800
C669        C  0.75252472  0.86963818  0.81241863     0.19400
C670        C  0.76729031  0.86917852  0.77218406     0.01500
C671        C  0.76299864  0.90991564  0.74164404    -0.14500
C672        C  0.74365346  0.94748936  0.74935845    -0.12200
C673        C  0.72786150  0.94561743  0.78736374     0.01100
C674        C  0.73268657  0.90719548  0.81927970    -0.24400
H675        H  0.82089017  0.77086889  0.68112358     0.09100
H676        H  0.79618923  0.84756169  0.69544835     0.12600
H677        H  0.80594555  0.71596324  0.81420885     0.11400
H678        H  0.77822584  0.76364055  0.86355888     0.12600
H679        H  0.74649679  0.83249359  0.87615190     0.11600
H680        H  0.77415800  0.91356151  0.71137529     0.08700
H681        H  0.74041465  0.97750264  0.72473056     0.11900
H682        H  0.72075419  0.90621275  0.84912485     0.13800
C683        C  0.76209365  0.44727063  0.71976520    -0.01700
C684        C  0.74279530  0.45150859  0.75283007    -0.09700
C685        C  0.72436668  0.41195143  0.76014261    -0.18600
C686        C  0.72448547  0.36696042  0.73393604     0.03800
C687        C  0.74315714  0.36445076  0.69863953     0.18000
C688        C  0.76200036  0.40392673  0.69248104    -0.20000
C689        C  0.74332542  0.32205249  0.67021931    -0.21200
C690        C  0.72592214  0.28134910  0.67675008    -0.19800
C691        C  0.70836984  0.28130920  0.71261206     0.19400
C692        C  0.70726283  0.32399071  0.74181962     0.01500
C693        C  0.68984142  0.32062845  0.77854608    -0.14500
C694        C  0.67522473  0.27586719  0.78693650    -0.12200
C695        C  0.67692835  0.23346825  0.75848026     0.01100
C696        C  0.69289435  0.23755948  0.72049746    -0.24400
H697        H  0.74266391  0.48483873  0.77430147     0.09100
H698        H  0.71040327  0.41744096  0.78667752     0.12600
H699        H  0.77686860  0.40073909  0.66672020     0.11400
H700        H  0.75722362  0.32012260  0.64294901     0.12600
H701        H  0.72683421  0.24886586  0.65436897     0.11600
H702        H  0.68805270  0.35115513  0.80247438     0.08700
H703        H  0.66343586  0.27379191  0.81683387     0.11900
H704        H  0.69472945  0.20516348  0.69822659     0.13800
loop_ 
_geom_bond_atom_site_label_1 
_geom_bond_atom_site_label_2 
_geom_bond_distance 
_geom_bond_site_symmetry_2 
_ccdc_geom_bond_type 
O1          Cr19   2.023       .  S
O1            C9   1.268       .  A
O2          Cr19   1.949       .  S
O2            C3   1.257       .  A
C3            O4   1.273       .  A
C3          C595   1.471       .  S
O4          Cr20   2.031       .  S
O5          Cr20   1.983       .  S
O5            C6   1.258       .  A
C6            O7   1.263       .  A
C6          C683   1.477       .  S
O7          Cr21   2.010       .  S
O8          Cr21   1.959       .  S
O8            C9   1.258       .  A
C9          C617   1.463       .  S
O10         Cr19   1.992       .  S
O10          C18   1.265       .  A
O11         Cr19   2.033       .  S
O11          C12   1.268       .  A
C12          O13   1.254       .  A
C12         C661   1.490       .  S
O13         Cr20   1.966       .  S
O14         Cr20   2.020       .  S
O14          C15   1.272       .  A
C15          O16   1.259       .  A
C15         C651   1.473       .  S
O16         Cr21   1.948       .  S
O17         Cr21   2.008       .  S
O17          C18   1.269       .  A
C18         C573   1.487       .  S
Cr19         O22   1.774       .  S
Cr20         O22   1.768       .  S
Cr21         O22   1.759       .  S
O23         Cr41   1.961       .  S
O23          C31   1.260       .  A
O24         Cr41   2.009       .  S
O24          C25   1.264       .  A
C25          O26   1.257       .  A
C25         C507   1.477       .  S
O26         Cr42   1.987       .  S
O27         Cr42   2.032       .  S
O27          C28   1.273       .  A
C28          O29   1.256       .  A
C28         C607   1.473       .  S
O29         Cr43   1.949       .  S
O30         Cr43   2.023       .  S
O30          C31   1.272       .  A
C31         C551   1.475       .  S
O32         Cr41   2.002       .  S
O32          C40   1.266       .  A
O33         Cr41   1.940       .  S
O33          C34   1.256       .  A
C34          O35   1.275       .  A
C34         C529   1.473       .  S
O35         Cr42   2.035       .  S
O36         Cr42   1.963       .  S
O36          C37   1.255       .  A
C37          O38   1.269       .  A
C37         C497   1.490       .  S
O38         Cr43   2.035       .  S
O39         Cr43   1.987       .  S
O39          C40   1.263       .  A
C40         C463   1.481       .  S
Cr41         O44   1.757       .  S
Cr42         O44   1.762       .  S
Cr43         O44   1.765       .  S
O45         Cr63   2.027       .  S
O45          C53   1.272       .  A
O46         Cr63   1.942       .  S
O46          C47   1.255       .  A
C47          O48   1.274       .  A
C47         C441   1.474       .  S
O48         Cr64   2.036       .  S
O49         Cr64   1.980       .  S
O49          C50   1.256   1_545  A
C50          O51   1.264       .  A
C50         C673   1.476       .  S
O51         Cr65   2.018   1_565  S
O52         Cr65   1.953   1_565  S
O52          C53   1.257   1_565  A
C53         C541   1.475   1_545  S
O54         Cr63   1.997       .  S
O54          C62   1.266       .  A
O55         Cr63   2.045       .  S
O55          C56   1.270       .  A
C56          O57   1.253       .  A
C56         C695   1.495       .  S
O57         Cr64   1.959       .  S
O58         Cr64   2.027       .  S
O58          C59   1.274       .  A
C59          O60   1.257       .  A
C59         C563   1.471       .  S
O60         Cr65   1.941       .  S
O61         Cr65   2.017       .  S
O61          C62   1.271       .  A
C62         C419   1.495       .  S
Cr63         O66   1.772       .  S
Cr64         O66   1.766       .  S
Cr65         O66   1.761       .  S
O67         Cr85   1.971       .  S
O67          C75   1.257       .  A
O68         Cr85   2.012       .  S
O68          C69   1.264       .  A
C69          O70   1.257       .  A
C69         C485   1.474       .  S
O70         Cr86   1.979       .  S
O71         Cr86   2.028       .  S
O71          C72   1.274       .  A
C72          O73   1.258       .  A
C72         C453   1.474       .  S
O73         Cr87   1.954       .  S
O74         Cr87   2.008       .  S
O74          C75   1.265       .  A
C75         C639   1.465       .  S
O76         Cr85   2.016       .  S
O76          C84   1.271       .  A
O77         Cr85   1.956       .  S
O77          C78   1.259       .  A
C78          O79   1.272       .  A
C78         C629   1.472       .  S
O79         Cr86   2.018       .  S
O80         Cr86   1.977       .  S
O80          C81   1.255       .  A
C81          O82   1.264       .  A
C81         C519   1.477       .  S
O82         Cr87   2.018       .  S
O83         Cr87   1.993       .  S
O83          C84   1.266       .  A
C84         C397   1.490       .  S
Cr85         O88   1.761       .  S
Cr86         O88   1.767       .  S
Cr87         O88   1.770       .  S
O89        Cr107   2.017       .  S
O89          C97   1.269       .  A
O90        Cr107   1.952       .  S
O90          C91   1.256       .  A
C91          O92   1.273       .  A
C91         C299   1.477       .  S
O92        Cr108   2.028       .  S
O93        Cr108   1.986       .  S
O93          C94   1.256       .  A
C94          O95   1.263       .  A
C94         C387   1.476       .  S
O95        Cr109   2.012       .  S
O96        Cr109   1.966       .  S
O96          C97   1.259       .  A
C97         C309   1.467       .  S
O98        Cr107   1.990       .  S
O98         C106   1.265       .  A
O99        Cr107   2.035       .  S
O99         C100   1.269       .  A
C100        O101   1.257       .  A
C100        C365   1.492       .  S
O101       Cr108   1.971       .  S
O102       Cr108   2.035       .  S
O102        C103   1.276       .  A
C103        O104   1.258       .  A
C103        C343   1.477       .  S
O104       Cr109   1.946       .  S
O105       Cr109   2.009       .  S
O105        C106   1.269       .  A
C106        C585   1.486       .  S
Cr107       O110   1.768       .  S
Cr108       O110   1.762       .  S
Cr109       O110   1.760       .  S
O111       Cr129   1.964       .  S
O111        C119   1.259       .  A
O112       Cr129   2.009       .  S
O112        C113   1.264       .  A
C113        O114   1.257       .  A
C113        C221   1.467       .  S
O114       Cr130   1.975       .  S
O115       Cr130   2.042       .  S
O115        C116   1.273       .  A
C116        O117   1.254       .  A
C116        C287   1.478       .  S
O117       Cr131   1.940       .  S
O118       Cr131   2.027       .  S
O118        C119   1.272       .  A
C119        C277   1.478       .  S
O120       Cr129   2.017       .  S
O120        C128   1.269       .  A
O121       Cr129   1.958       .  S
O121        C122   1.261       .  A
C122        O123   1.273       .  A
C122        C243   1.481       .  S
O123       Cr130   2.028       .  S
O124       Cr130   1.958       .  S
O124        C125   1.253       .  A
C125        O126   1.270       .  A
C125        C211   1.489       .  S
O126       Cr131   2.039       .  S
O127       Cr131   1.978       .  S
O127        C128   1.261       .  A
C128        C475   1.483       .  S
Cr129       O132   1.761       .  S
Cr130       O132   1.764       .  S
Cr131       O132   1.765       .  S
O133       Cr151   1.954       .  S
O133        C141   1.257       .  A
O134       Cr151   2.010       .  S
O134        C135   1.264       .  A
C135        O136   1.258       .  A
C135        C199   1.471       .  S
O136       Cr152   1.977       .  S
O137       Cr152   2.039       .  S
O137        C138   1.273       .  A
C138        O139   1.257       .  A
C138        C177   1.473       .  S
O139       Cr153   1.954       .  S
O140       Cr153   2.026       .  S
O140        C141   1.270       .  A
C141        C331   1.473       .  S
O142       Cr151   2.012       .  S
O142        C150   1.269       .  A
O143       Cr151   1.951       .  S
O143        C144   1.258       .  A
C144        O145   1.272       .  A
C144        C321   1.475       .  S
O145       Cr152   2.023       .  S
O146       Cr152   1.961       .  S
O146        C147   1.254       .  A
C147        O148   1.269       .  A
C147        C233   1.486       .  S
O148       Cr153   2.031       .  S
O149       Cr153   1.994       .  S
O149        C150   1.264       .  A
C150        C409   1.491       .  S
Cr151       O154   1.759       .  S
Cr152       O154   1.768       .  S
Cr153       O154   1.771       .  S
O155       Cr173   2.014       .  S
O155        C163   1.268       .  A
O156       Cr173   1.956       .  S
O156        C157   1.258       .  A
C157        O158   1.277       .  A
C157        C189   1.479       .  S
O158       Cr174   2.045       .  S
O159       Cr174   1.989       .  S
O159        C160   1.259   1_545  A
C160        O161   1.265       .  A
C160        C353   1.480       .  S
O161       Cr175   2.018   1_565  S
O162       Cr175   1.976   1_565  S
O162        C163   1.258   1_565  A
C163        C255   1.472   1_545  S
O164       Cr173   1.991       .  S
O164        C172   1.265       .  A
O165       Cr173   2.020       .  S
O165        C166   1.266       .  A
C166        O167   1.256       .  A
C166        C375   1.481       .  S
O167       Cr174   1.979       .  S
O168       Cr174   2.040       .  S
O168        C169   1.275       .  A
C169        O170   1.258       .  A
C169        C265   1.483       .  S
O170       Cr175   1.946       .  S
O171       Cr175   2.027       .  S
O171        C172   1.273       .  A
C172        C431   1.496       .  S
Cr173       O176   1.769       .  S
Cr174       O176   1.770       .  S
Cr175       O176   1.759       .  S
C177        C178   1.400       .  A
C177        C182   1.401       .  A
C178        C179   1.392       .  A
C178        H191   1.084       .  S
C179        C180   1.411       .  A
C179        H192   1.078       .  S
C180        C186   1.429       .  A
C180        C181   1.425       .  A
C181        C183   1.400       .  A
C181        C182   1.410       .  A
C182        H193   1.085       .  S
C183        C184   1.392       .  A
C183        H194   1.084       .  S
C184        C185   1.402       .  A
C184        H195   1.084       .  S
C185        C186   1.419       .  A
C185        C190   1.404       .  A
C186        C187   1.418       .  A
C187        C188   1.399       .  A
C187        H196   1.078       .  S
C188        C189   1.398       .  A
C188        H197   1.083       .  S
C189        C190   1.405       .  A
C190        H198   1.085       .  S
C199        C200   1.399       .  A
C199        C204   1.396       .  A
C200        C201   1.400       .  A
C200        H213   1.084       .  S
C201        C202   1.416       .  A
C201        H214   1.078       .  S
C202        C208   1.434       .  A
C202        C203   1.425       .  A
C203        C205   1.398       .  A
C203        C204   1.406       .  A
C204        H215   1.085       .  S
C205        C206   1.388       .  A
C205        H216   1.084       .  S
C206        C207   1.400       .  A
C206        H217   1.084       .  S
C207        C208   1.420       .  A
C207        C212   1.403       .  A
C208        C209   1.418       .  A
C209        C210   1.404       .  A
C209        H218   1.078       .  S
C210        C211   1.402       .  A
C210        H219   1.083       .  S
C211        C212   1.406       .  A
C212        H220   1.084       .  S
C221        C222   1.397       .  A
C221        C226   1.397   1_565  A
C222        C223   1.396   1_565  A
C222        H235   1.084       .  S
C223        C224   1.415       .  A
C223        H236   1.078       .  S
C224        C230   1.432       .  A
C224        C225   1.425       .  A
C225        C227   1.399       .  A
C225        C226   1.407       .  A
C226        H237   1.085       .  S
C227        C228   1.390       .  A
C227        H238   1.084       .  S
C228        C229   1.401       .  A
C228        H239   1.084       .  S
C229        C230   1.421       .  A
C229        C234   1.405       .  A
C230        C231   1.417       .  A
C231        C232   1.400       .  A
C231        H240   1.078       .  S
C232        C233   1.401       .  A
C232        H241   1.083       .  S
C233        C234   1.406       .  A
C234        H242   1.085       .  S
C243        C244   1.401       .  A
C243        C248   1.404       .  A
C244        C245   1.390       .  A
C244        H257   1.083       .  S
C245        C246   1.411       .  A
C245        H258   1.077       .  S
C246        C252   1.426       .  A
C246        C247   1.422       .  A
C247        C249   1.401       .  A
C247        C248   1.409       .  A
C248        H259   1.084       .  S
C249        C250   1.393       .  A
C249        H260   1.084       .  S
C250        C251   1.401       .  A
C250        H261   1.084       .  S
C251        C252   1.422       .  A
C251        C256   1.407       .  A
C252        C253   1.415       .  A
C253        C254   1.391       .  A
C253        H262   1.077       .  S
C254        C255   1.396       .  A
C254        H263   1.084   1_565  S
C255        C256   1.403       .  A
C256        H264   1.085       .  S
C265        C266   1.405       .  A
C265        C270   1.402       .  A
C266        C267   1.389   1_545  A
C266        H279   1.083   1_545  S
C267        C268   1.408       .  A
C267        H280   1.077       .  S
C268        C274   1.427       .  A
C268        C269   1.424   1_565  A
C269        C271   1.400       .  A
C269        C270   1.411       .  A
C270        H281   1.084       .  S
C271        C272   1.393   1_556  A
C271        H282   1.084       .  S
C272        C273   1.402   1_545  A
C272        H283   1.084       .  S
C273        C274   1.419   1_554  A
C273        C278   1.404       .  A
C274        C275   1.417   1_556  A
C275        C276   1.396       .  A
C275        H284   1.077   1_554  S
C276        C277   1.397       .  A
C276        H285   1.083       .  S
C277        C278   1.405       .  A
C278        H286   1.085       .  S
C287        C288   1.403       .  A
C287        C292   1.401       .  A
C288        C289   1.387       .  A
C288        H301   1.084       .  S
C289        C290   1.408       .  A
C289        H302   1.077   1_554  S
C290        C296   1.425   1_554  A
C290        C291   1.425       .  A
C291        C293   1.399       .  A
C291        C292   1.409       .  A
C292        H303   1.084       .  S
C293        C294   1.392       .  A
C293        H304   1.084       .  S
C294        C295   1.402   1_554  A
C294        H305   1.084       .  S
C295        C296   1.418       .  A
C295        C300   1.402       .  A
C296        C297   1.417       .  A
C297        C298   1.395       .  A
C297        H306   1.077       .  S
C298        C299   1.397       .  A
C298        H307   1.083       .  S
C299        C300   1.407       .  A
C300        H308   1.085       .  S
C309        C310   1.396       .  A
C309        C314   1.400       .  A
C310        C311   1.393       .  A
C310        H323   1.084       .  S
C311        C312   1.416   1_556  A
C311        H324   1.076   1_556  S
C312        C318   1.425       .  A
C312        C313   1.421   1_554  A
C313        C315   1.400       .  A
C313        C314   1.401       .  A
C314        H325   1.085       .  S
C315        C316   1.389   1_556  A
C315        H326   1.084       .  S
C316        C317   1.399       .  A
C316        H327   1.084       .  S
C317        C318   1.423       .  A
C317        C322   1.404       .  A
C318        C319   1.411       .  A
C319        C320   1.390       .  A
C319        H328   1.076       .  S
C320        C321   1.402       .  A
C320        H329   1.083       .  S
C321        C322   1.400       .  A
C322        H330   1.084       .  S
C331        C332   1.401       .  A
C331        C336   1.398       .  A
C332        C333   1.391       .  A
C332        H345   1.084       .  S
C333        C334   1.411       .  A
C333        H346   1.077       .  S
C334        C340   1.427       .  A
C334        C335   1.425       .  A
C335        C337   1.398       .  A
C335        C336   1.405       .  A
C336        H347   1.085       .  S
C337        C338   1.389       .  A
C337        H348   1.084       .  S
C338        C339   1.400       .  A
C338        H349   1.084       .  S
C339        C340   1.419       .  A
C339        C344   1.399       .  A
C340        C341   1.418       .  A
C341        C342   1.397       .  A
C341        H350   1.077       .  S
C342        C343   1.397       .  A
C342        H351   1.083       .  S
C343        C344   1.405       .  A
C344        H352   1.084       .  S
C353        C354   1.397       .  A
C353        C358   1.403       .  A
C354        C355   1.401       .  A
C354        H367   1.084       .  S
C355        C356   1.418       .  A
C355        H368   1.077       .  S
C356        C362   1.436       .  A
C356        C357   1.423       .  A
C357        C359   1.401       .  A
C357        C358   1.412       .  A
C358        H369   1.085       .  S
C359        C360   1.394       .  A
C359        H370   1.084       .  S
C360        C361   1.401       .  A
C360        H371   1.084       .  S
C361        C362   1.424       .  A
C361        C366   1.414       .  A
C362        C363   1.414       .  A
C363        C364   1.398       .  A
C363        H372   1.077       .  S
C364        C365   1.403       .  A
C364        H373   1.083       .  S
C365        C366   1.406       .  A
C366        H374   1.084       .  S
C375        C376   1.402       .  A
C375        C380   1.401       .  A
C376        C377   1.404       .  A
C376        H389   1.083       .  S
C377        C378   1.417       .  A
C377        H390   1.078       .  S
C378        C384   1.434       .  A
C378        C379   1.423       .  A
C379        C381   1.399       .  A
C379        C380   1.403       .  A
C380        H391   1.085       .  S
C381        C382   1.388       .  A
C381        H392   1.084       .  S
C382        C383   1.399       .  A
C382        H393   1.084       .  S
C383        C384   1.422       .  A
C383        C388   1.403       .  A
C384        C385   1.418       .  A
C385        C386   1.404       .  A
C385        H394   1.078       .  S
C386        C387   1.400       .  A
C386        H395   1.083       .  S
C387        C388   1.399       .  A
C388        H396   1.085       .  S
C397        C398   1.402       .  A
C397        C402   1.407       .  A
C398        C399   1.392       .  A
C398        H411   1.083       .  S
C399        C400   1.413       .  A
C399        H412   1.076       .  S
C400        C406   1.432   1_655  A
C400        C401   1.423       .  A
C401        C403   1.402       .  A
C401        C402   1.415       .  A
C402        H413   1.084       .  S
C403        C404   1.396   1_655  A
C403        H414   1.084       .  S
C404        C405   1.402       .  A
C404        H415   1.084       .  S
C405        C406   1.423       .  A
C405        C410   1.415       .  A
C406        C407   1.413       .  A
C407        C408   1.393       .  A
C407        H416   1.076       .  S
C408        C409   1.402       .  A
C408        H417   1.083       .  S
C409        C410   1.407       .  A
C410        H418   1.084       .  S
C419        C420   1.403       .  A
C419        C424   1.407       .  A
C420        C421   1.395       .  A
C420        H433   1.083   1_545  S
C421        C422   1.413       .  A
C421        H434   1.077   1_545  S
C422        C428   1.435       .  A
C422        C423   1.423       .  A
C423        C425   1.402       .  A
C423        C424   1.417       .  A
C424        H435   1.084       .  S
C425        C426   1.396       .  A
C425        H436   1.084       .  S
C426        C427   1.402       .  A
C426        H437   1.084       .  S
C427        C428   1.422       .  A
C427        C432   1.416       .  A
C428        C429   1.414       .  A
C429        C430   1.397       .  A
C429        H438   1.077   1_545  S
C430        C431   1.403       .  A
C430        H439   1.083   1_545  S
C431        C432   1.408       .  A
C432        H440   1.084       .  S
C441        C442   1.403       .  A
C441        C446   1.398       .  A
C442        C443   1.389       .  A
C442        H455   1.084       .  S
C443        C444   1.410       .  A
C443        H456   1.078   1_556  S
C444        C450   1.426   1_556  A
C444        C445   1.425       .  A
C445        C447   1.398       .  A
C445        C446   1.406       .  A
C446        H457   1.085       .  S
C447        C448   1.389       .  A
C447        H458   1.084       .  S
C448        C449   1.400   1_556  A
C448        H459   1.084       .  S
C449        C450   1.419       .  A
C449        C454   1.400       .  A
C450        C451   1.418       .  A
C451        C452   1.395       .  A
C451        H460   1.077       .  S
C452        C453   1.397       .  A
C452        H461   1.083       .  S
C453        C454   1.404       .  A
C454        H462   1.085       .  S
C463        C464   1.400       .  A
C463        C468   1.402       .  A
C464        C465   1.401       .  A
C464        H477   1.083       .  S
C465        C466   1.417       .  A
C465        H478   1.077       .  S
C466        C472   1.431       .  A
C466        C467   1.421       .  A
C467        C469   1.399       .  A
C467        C468   1.400       .  A
C468        H479   1.084       .  S
C469        C470   1.387       .  A
C469        H480   1.084       .  S
C470        C471   1.399       .  A
C470        H481   1.084       .  S
C471        C472   1.423       .  A
C471        C476   1.403       .  A
C472        C473   1.415       .  A
C473        C474   1.399       .  A
C473        H482   1.077       .  S
C474        C475   1.402       .  A
C474        H483   1.083       .  S
C475        C476   1.402       .  A
C476        H484   1.084       .  S
C485        C486   1.399       .  A
C485        C490   1.398       .  A
C486        C487   1.400       .  A
C486        H499   1.084       .  S
C487        C488   1.415       .  A
C487        H500   1.078       .  S
C488        C494   1.435       .  A
C488        C489   1.425       .  A
C489        C491   1.398       .  A
C489        C490   1.408       .  A
C490        H501   1.085       .  S
C491        C492   1.389       .  A
C491        H502   1.084       .  S
C492        C493   1.400       .  A
C492        H503   1.084       .  S
C493        C494   1.421       .  A
C493        C498   1.404       .  A
C494        C495   1.418       .  A
C495        C496   1.404       .  A
C495        H504   1.078       .  S
C496        C497   1.402       .  A
C496        H505   1.083       .  S
C497        C498   1.405       .  A
C498        H506   1.084       .  S
C507        C508   1.400       .  A
C507        C512   1.400   1_565  A
C508        C509   1.404   1_565  A
C508        H521   1.083       .  S
C509        C510   1.418       .  A
C509        H522   1.078       .  S
C510        C516   1.434       .  A
C510        C511   1.422       .  A
C511        C513   1.399       .  A
C511        C512   1.402       .  A
C512        H523   1.085   1_545  S
C513        C514   1.388       .  A
C513        H524   1.084       .  S
C514        C515   1.399       .  A
C514        H525   1.084       .  S
C515        C516   1.423       .  A
C515        C520   1.404       .  A
C516        C517   1.417       .  A
C517        C518   1.403       .  A
C517        H526   1.078       .  S
C518        C519   1.399       .  A
C518        H527   1.083       .  S
C519        C520   1.401       .  A
C520        H528   1.085       .  S
C529        C530   1.403       .  A
C529        C534   1.400       .  A
C530        C531   1.386       .  A
C530        H543   1.084       .  S
C531        C532   1.407       .  A
C531        H544   1.078       .  S
C532        C538   1.422       .  A
C532        C533   1.424       .  A
C533        C535   1.399       .  A
C533        C534   1.407       .  A
C534        H545   1.084       .  S
C535        C536   1.391   1_554  A
C535        H546   1.084       .  S
C536        C537   1.401       .  A
C536        H547   1.084       .  S
C537        C538   1.418   1_556  A
C537        C542   1.400       .  A
C538        C539   1.416       .  A
C539        C540   1.395   1_564  A
C539        H548   1.078   1_565  S
C540        C541   1.398   1_545  A
C540        H549   1.083       .  S
C541        C542   1.405       .  A
C542        H550   1.085       .  S
C551        C552   1.402       .  A
C551        C556   1.399       .  A
C552        C553   1.394   1_565  A
C552        H565   1.083       .  S
C553        C554   1.412   1_545  A
C553        H566   1.077       .  S
C554        C560   1.426       .  A
C554        C555   1.423       .  A
C555        C557   1.398       .  A
C555        C556   1.401       .  A
C556        H567   1.084       .  S
C557        C558   1.386       .  A
C557        H568   1.084       .  S
C558        C559   1.399       .  A
C558        H569   1.084       .  S
C559        C560   1.420       .  A
C559        C564   1.395       .  A
C560        C561   1.418   1_565  A
C561        C562   1.398       .  A
C561        H570   1.077       .  S
C562        C563   1.397       .  A
C562        H571   1.083       .  S
C563        C564   1.401   1_545  A
C564        H572   1.085       .  S
C573        C574   1.403       .  A
C573        C578   1.405       .  A
C574        C575   1.392       .  A
C574        H587   1.083       .  S
C575        C576   1.412       .  A
C575        H588   1.077       .  S
C576        C582   1.430   1_655  A
C576        C577   1.423       .  A
C577        C579   1.401       .  A
C577        C578   1.413       .  A
C578        H589   1.084       .  S
C579        C580   1.395   1_655  A
C579        H590   1.084       .  S
C580        C581   1.401       .  A
C580        H591   1.084       .  S
C581        C582   1.422       .  A
C581        C586   1.411       .  A
C582        C583   1.413       .  A
C583        C584   1.392       .  A
C583        H592   1.077       .  S
C584        C585   1.402       .  A
C584        H593   1.083       .  S
C585        C586   1.405       .  A
C586        H594   1.084       .  S
C595        C596   1.401       .  A
C595        C600   1.398       .  A
C596        C597   1.391       .  A
C596        H609   1.084       .  S
C597        C598   1.411       .  A
C597        H610   1.077       .  S
C598        C604   1.426       .  A
C598        C599   1.424       .  A
C599        C601   1.398       .  A
C599        C600   1.405       .  A
C600        H611   1.084       .  S
C601        C602   1.389       .  A
C601        H612   1.084       .  S
C602        C603   1.400       .  A
C602        H613   1.084       .  S
C603        C604   1.420       .  A
C603        C608   1.400       .  A
C604        C605   1.417       .  A
C605        C606   1.396       .  A
C605        H614   1.077       .  S
C606        C607   1.397       .  A
C606        H615   1.083       .  S
C607        C608   1.403       .  A
C608        H616   1.085       .  S
C617        C618   1.396       .  A
C617        C622   1.397       .  A
C618        C619   1.398       .  A
C618        H631   1.083       .  S
C619        C620   1.418       .  A
C619        H632   1.077       .  S
C620        C626   1.426       .  A
C620        C621   1.421       .  A
C621        C623   1.398       .  A
C621        C622   1.397       .  A
C622        H633   1.086       .  S
C623        C624   1.386       .  A
C623        H634   1.084       .  S
C624        C625   1.398       .  A
C624        H635   1.084       .  S
C625        C626   1.424       .  A
C625        C630   1.401       .  A
C626        C627   1.412       .  A
C627        C628   1.394       .  A
C627        H636   1.078       .  S
C628        C629   1.402       .  A
C628        H637   1.084       .  S
C629        C630   1.398       .  A
C630        H638   1.085       .  S
C639        C640   1.395       .  A
C639        C644   1.401       .  A
C640        C641   1.390       .  A
C640        H653   1.084       .  S
C641        C642   1.415   1_554  A
C641        H654   1.076   1_554  S
C642        C648   1.423       .  A
C642        C643   1.421   1_556  A
C643        C645   1.400       .  A
C643        C644   1.403       .  A
C644        H655   1.085       .  S
C645        C646   1.391   1_554  A
C645        H656   1.084       .  S
C646        C647   1.399       .  A
C646        H657   1.084       .  S
C647        C648   1.423       .  A
C647        C652   1.405       .  A
C648        C649   1.410       .  A
C649        C650   1.387       .  A
C649        H658   1.077       .  S
C650        C651   1.401       .  A
C650        H659   1.084       .  S
C651        C652   1.401       .  A
C652        H660   1.084       .  S
C661        C662   1.403       .  A
C661        C666   1.405       .  A
C662        C663   1.403       .  A
C662        H675   1.083       .  S
C663        C664   1.418       .  A
C663        H676   1.078       .  S
C664        C670   1.435       .  A
C664        C665   1.421       .  A
C665        C667   1.401       .  A
C665        C666   1.406       .  A
C666        H677   1.085       .  S
C667        C668   1.391       .  A
C667        H678   1.084       .  S
C668        C669   1.399       .  A
C668        H679   1.084       .  S
C669        C670   1.425       .  A
C669        C674   1.411       .  A
C670        C671   1.414       .  A
C671        C672   1.399       .  A
C671        H680   1.078       .  S
C672        C673   1.399       .  A
C672        H681   1.084       .  S
C673        C674   1.399       .  A
C674        H682   1.085       .  S
C683        C684   1.400       .  A
C683        C688   1.398       .  A
C684        C685   1.403       .  A
C684        H697   1.084       .  S
C685        C686   1.416       .  A
C685        H698   1.078       .  S
C686        C692   1.437       .  A
C686        C687   1.426       .  A
C687        C689   1.398       .  A
C687        C688   1.408       .  A
C688        H699   1.085       .  S
C689        C690   1.389       .  A
C689        H700   1.084       .  S
C690        C691   1.400       .  A
C690        H701   1.084       .  S
C691        C692   1.420       .  A
C691        C696   1.405       .  A
C692        C693   1.419       .  A
C693        C694   1.407       .  A
C693        H702   1.078       .  S
C694        C695   1.403       .  A
C694        H703   1.083       .  S
C695        C696   1.407       .  A
C696        H704   1.084       .  S
