geometry optimzed in LAMMPS
_audit_creation_date              2020-12-01 
_audit_creation_method            'lammps2cif' 
_symmetry_space_group_name_H-M    'P1' 
_symmetry_Int_Tables_number       1 
_symmetry_cell_setting            triclinic 
loop_ 
_symmetry_equiv_pos_as_xyz 
  x,y,z 
_cell_length_a                    29.1647964 
_cell_length_b                    47.39725850752054 
_cell_length_c                    27.75685733365773 
_cell_angle_alpha                 90.00663452104067 
_cell_angle_beta                  98.54132064960675 
_cell_angle_gamma                 89.88378615264708 
loop_ 
_atom_site_label 
_atom_site_type_symbol 
_atom_site_fract_x 
_atom_site_fract_y 
_atom_site_fract_z 
_atom_site_charge 
Fe1        Fe  0.24433375  0.62037199  0.68068768     1.65800
Fe2        Fe  0.17281940  0.60659153  0.57697430     1.73200
Fe3        Fe  0.24937030  0.55765686  0.62307912     1.54400
O4          O  0.31490921  0.56896570  0.65793206    -0.81000
O5          O  0.13592729  0.57290119  0.59375129    -0.79300
O6          O  0.31263942  0.61488582  0.67253694    -0.83500
O7          O  0.24783705  0.58654101  0.73209958    -0.78300
O8          O  0.26879357  0.56672463  0.55691975    -0.80100
O9          O  0.13648084  0.63002944  0.62219545    -0.82900
C10         C  0.23703988  0.56021462  0.72863328     0.97900
C11         C  0.33493523  0.59194766  0.67200714     1.05300
O12         O  0.22298825  0.59533159  0.62690533    -1.11800
O13         O  0.20758297  0.64111508  0.55975178    -0.74300
O14         O  0.24198588  0.65598976  0.63292279    -0.77800
O15         O  0.23020033  0.54737906  0.68812076    -0.78400
C16         C  0.22850244  0.65987112  0.58707524     0.96800
O17         O  0.17824946  0.62809800  0.69554109    -0.76400
O18         O  0.20060216  0.58397476  0.52325753    -0.81600
C19         C  0.14627548  0.54849818  0.58111867     0.99400
C20         C  0.23852115  0.57113455  0.51990986     1.05400
O21         O  0.18792023  0.53972443  0.58724819    -0.77200
C22         C  0.14048856  0.63324498  0.66800241     1.03700
Fe23       Fe  0.75860752  0.62110609  0.81963380     1.65800
Fe24       Fe  0.82728758  0.60796979  0.92531367     1.73200
Fe25       Fe  0.76050920  0.55649203  0.87137467     1.54400
O26         O  0.69329054  0.56667026  0.83729293    -0.81000
O27         O  0.87152923  0.57757636  0.91034122    -0.79300
O28         O  0.69158788  0.61341833  0.82883964    -0.83500
O29         O  0.75596599  0.58901499  0.76578409    -0.78300
O30         O  0.73890840  0.56115852  0.93734643    -0.80100
O31         O  0.86145285  0.63435042  0.88142314    -0.82900
C32         C  0.77073956  0.56349871  0.76651777     0.97900
C33         C  0.67144954  0.58965760  0.82605663     1.05300
O34         O  0.78159411  0.59535178  0.87215418    -1.11800
O35         O  0.78511270  0.63964351  0.94174398    -0.74300
O36         O  0.75950744  0.65641298  0.86756450    -0.77800
O37         O  0.78159421  0.55002778  0.80594798    -0.78400
C38         C  0.76836749  0.65949808  0.91398159     0.96800
O39         O  0.82415414  0.62969165  0.80599948    -0.76400
O40         O  0.80194731  0.58163026  0.97681194    -0.81600
C41         C  0.86557143  0.55134641  0.91311246     0.99400
C42         C  0.76682220  0.56547030  0.97607466     1.05400
O43         O  0.82515402  0.54045529  0.90491357    -0.77200
C44         C  0.86006959  0.63605748  0.83536681     1.03700
Fe45       Fe  0.75946550  0.37993082  0.32019673     1.65800
Fe46       Fe  0.83339983  0.39280185  0.42187383     1.73200
Fe47       Fe  0.76840894  0.44513405  0.36782700     1.54400
O48         O  0.78749165  0.44911724  0.30059303    -0.81000
O49         O  0.81367281  0.42170632  0.47244195    -0.79300
O50         O  0.75387399  0.41084236  0.26468492    -0.83500
O51         O  0.69325603  0.38935080  0.33283171    -0.78300
O52         O  0.83467142  0.45913180  0.39729608    -0.80100
O53         O  0.78943031  0.36345838  0.44322788    -0.82900
C54         C  0.67522447  0.41389585  0.32962255     0.97900
C55         C  0.77140455  0.43544386  0.26277416     1.05300
O56         O  0.78608558  0.40580191  0.37046732    -1.11800
O57         O  0.86184936  0.36365406  0.37806317    -0.74300
O58         O  0.82444620  0.37108050  0.30378272    -0.77800
O59         O  0.69973159  0.43619531  0.33741826    -0.78400
C60         C  0.86086610  0.36403551  0.33205194     0.96800
O61         O  0.76215235  0.34569190  0.37020161    -0.76400
O62         O  0.87909967  0.42090744  0.40166752    -0.81600
C63         C  0.78008412  0.43893306  0.47335169     0.99400
C64         C  0.87439692  0.44730747  0.40373373     1.05400
O65         O  0.75007275  0.44328209  0.43611500    -0.77200
C66         C  0.77058579  0.34360114  0.41680225     1.03700
Fe67       Fe  0.25388250  0.38576566  0.18603807     1.65800
Fe68       Fe  0.17957737  0.39353662  0.08265865     1.73200
Fe69       Fe  0.24989269  0.44632267  0.12286250     1.54400
O70         O  0.23131597  0.45698717  0.18802687    -0.81000
O71         O  0.20130165  0.41698823  0.02544999    -0.79300
O72         O  0.26042205  0.42066234  0.23364782    -0.83500
O73         O  0.32026619  0.39126070  0.17174753    -0.78300
O74         O  0.18476163  0.46051972  0.08838241    -0.80100
O75         O  0.22145243  0.36138950  0.06805586    -0.82900
C76         C  0.34008877  0.41502456  0.17134654     0.97900
C77         C  0.24542837  0.44604482  0.22922239     1.05300
O78         O  0.22850160  0.40830931  0.13036205    -1.11800
O79         O  0.14931902  0.36917430  0.13287205    -0.74300
O80         O  0.18932820  0.38009263  0.20468155    -0.77800
O81         O  0.31763574  0.43745231  0.15736136    -0.78400
C82         C  0.15245115  0.37167907  0.17896677     0.96800
O83         O  0.24986064  0.34840640  0.14410922    -0.76400
O84         O  0.13658923  0.42527174  0.09663364    -0.81600
C85         C  0.23707730  0.43157542  0.02012010     0.99400
C86         C  0.14387674  0.45041860  0.08505262     1.05400
O87         O  0.26811568  0.43701066  0.05602349    -0.77200
C88         C  0.24167984  0.34369853  0.09820768     1.03700
Fe89       Fe  0.73811620  0.88269616  0.18461359     1.65800
Fe90       Fe  0.66384676  0.89565657  0.08180643     1.73200
Fe91       Fe  0.73696147  0.94570666  0.12875275     1.54400
O92         O  0.71655362  0.95456116  0.19370789    -0.81000
O93         O  0.69011544  0.91967129  0.02769733    -0.79300
O94         O  0.74178551  0.91620642  0.23664703    -0.83500
O95         O  0.80576294  0.88956275  0.17406787    -0.78300
O96         O  0.67454242  0.96212944  0.09285677    -0.80100
O97         O  0.70147902  0.86214558  0.06396283    -0.82900
C98         C  0.82546811  0.91345387  0.17630185     0.97900
C99         C  0.72765220  0.94197551  0.23407106     1.05300
O100        O  0.71362361  0.90757673  0.13165682    -1.11800
O101        O  0.62994274  0.87117453  0.12839400    -0.74300
O102        O  0.67295612  0.87459796  0.20106366    -0.77800
O103        O  0.80302020  0.93601418  0.16440063    -0.78400
C104        C  0.63476930  0.86917332  0.17460805     0.96800
O105        O  0.73629351  0.84717518  0.13672183    -0.76400
O106        O  0.62356575  0.92831006  0.09848926    -0.81600
C107        C  0.72760703  0.93328911  0.02525167     0.99400
C108        C  0.63305248  0.95325791  0.08805568     1.05400
O109        O  0.75725355  0.93757939  0.06285854    -0.77200
C110        C  0.72439240  0.84371421  0.09054343     1.03700
Fe111      Fe  0.24472891  0.88550942  0.32221349     1.65800
Fe112      Fe  0.32102775  0.89646524  0.42260577     1.73200
Fe113      Fe  0.25236539  0.94917821  0.37696953     1.54400
O114        O  0.26825428  0.95643093  0.30936579    -0.81000
O115        O  0.30307731  0.92381229  0.47692201    -0.79300
O116        O  0.23875616  0.91823490  0.26945599    -0.83500
O117        O  0.17902380  0.89344427  0.33703897    -0.78300
O118        O  0.31940792  0.96358134  0.40675104    -0.80100
O119        O  0.27908090  0.86584472  0.44303173    -0.82900
C120        C  0.15992032  0.91755979  0.33664019     0.97900
C121        C  0.25417796  0.94355607  0.26995524     1.05300
O122        O  0.27176741  0.91018450  0.37415507    -1.11800
O123        O  0.34882478  0.86871113  0.37558823    -0.74300
O124        O  0.30861807  0.87731496  0.30307660    -0.77800
O125        O  0.18337485  0.94005011  0.34716827    -0.78400
C126        C  0.34549052  0.86922117  0.32933512     0.96800
O127        O  0.24873980  0.84986853  0.36963844    -0.76400
O128        O  0.36386312  0.92613787  0.40192817    -0.81600
C129        C  0.26905560  0.94029381  0.48071532     0.99400
C130        C  0.35944168  0.95199991  0.41085371     1.05400
O131        O  0.23638990  0.94364104  0.44566815    -0.77200
C132        C  0.25965787  0.84644894  0.41587160     1.03700
Fe133      Fe  0.25911955  0.12769120  0.82170396     1.65800
Fe134      Fe  0.32601380  0.10876928  0.92575972     1.73200
Fe135      Fe  0.25818825  0.06039446  0.86337096     1.54400
O136        O  0.19137354  0.07238142  0.83107981    -0.81000
O137        O  0.37017260  0.07960805  0.90553276    -0.79300
O138        O  0.19073749  0.11925914  0.82481815    -0.83500
O139        O  0.25932104  0.09956611  0.76253652    -0.78300
O140        O  0.23735429  0.05998418  0.93113118    -0.80100
O141        O  0.36074472  0.13839797  0.88942484    -0.82900
C142        C  0.27340314  0.07409616  0.76021052     0.97900
C143        C  0.17016357  0.09562671  0.82018601     1.05300
O144        O  0.28008570  0.09913483  0.87046650    -1.11800
O145        O  0.28355643  0.13872585  0.94708648    -0.74300
O146        O  0.25823248  0.15928636  0.87577010    -0.77800
O147        O  0.27936782  0.05792768  0.79694054    -0.78400
C148        C  0.26627372  0.15970045  0.92250608     0.96800
O149        O  0.32556047  0.13740242  0.81307839    -0.76400
O150        O  0.30072095  0.07961879  0.97139107    -0.81600
C151        C  0.36298096  0.05335057  0.90357946     0.99400
C152        C  0.26584648  0.06335689  0.96997345     1.05400
O153        O  0.32231251  0.04307102  0.89362098    -0.72400
C154        C  0.36067192  0.14258094  0.84427546     1.03700
Fe155      Fe  0.74210296  0.12029024  0.68764440     1.65800
Fe156      Fe  0.66582854  0.10783207  0.58615558     1.73200
Fe157      Fe  0.74423983  0.05867644  0.62607959     1.54400
O158        O  0.81187184  0.07042201  0.65541469    -0.81000
O159        O  0.62766671  0.07431678  0.60295225    -0.79300
O160        O  0.80906442  0.11576071  0.67490234    -0.83500
O161        O  0.74953694  0.08602772  0.73785500    -0.78300
O162        O  0.75788137  0.06832860  0.55773429    -0.80100
O163        O  0.63374026  0.13112803  0.63500844    -0.82900
C164        C  0.74077766  0.05949657  0.73413700     0.97900
C165        C  0.83175992  0.09331637  0.67065947     1.05300
O166        O  0.71788825  0.09583950  0.63357124    -1.11800
O167        O  0.70182618  0.14215497  0.56875876    -0.74300
O168        O  0.73675456  0.15664422  0.64177012    -0.77800
O169        O  0.73163538  0.04724945  0.69324110    -0.78400
C170        C  0.72354276  0.16079588  0.59601414     0.96800
O171        O  0.67782498  0.12688735  0.70699128    -0.76400
O172        O  0.68813543  0.08491896  0.52905956    -0.81600
C173        C  0.63786223  0.04916818  0.59384831     0.99400
C174        C  0.72496722  0.07168654  0.52295312     1.05400
O175        O  0.67989922  0.04100168  0.59626419    -0.77200
C176        C  0.63963265  0.13283335  0.68113576     1.03700
C177        C  0.44223525  0.16456721  0.75811626    -0.27500
C178        C  0.48456701  0.15445634  0.78269385     0.06100
C179        C  0.48713554  0.14534534  0.83124022     0.25700
C180        C  0.44694726  0.14407369  0.85309539    -0.12000
C181        C  0.40372810  0.15160890  0.82669405    -0.25900
C182        C  0.40210130  0.16315853  0.77975299     0.36500
C183        C  0.52417272  0.15057528  0.75566024     0.06100
F184        F  0.52753561  0.13533051  0.85599010    -0.19700
H185        H  0.44914553  0.13503886  0.88921487     0.15900
F186        F  0.36131147  0.17163390  0.75366727    -0.23400
H187        H  0.43984820  0.17225814  0.72106948     0.17700
C188        C  0.51824926  0.13516508  0.71184689     0.25700
C189        C  0.55569810  0.13058123  0.68687960    -0.12000
C190        C  0.59992263  0.14069837  0.70558661    -0.26000
C191        C  0.60596450  0.15615046  0.74937280     0.36600
C192        C  0.56821742  0.16116269  0.77402716    -0.27600
F193        F  0.47669699  0.12337045  0.69437606    -0.19700
H194        H  0.55051458  0.11805166  0.65386557     0.15900
F195        F  0.64822340  0.16648445  0.76814532    -0.23500
H196        H  0.57338085  0.17315240  0.80761276     0.17800
C197        C  0.95872848  0.07111814  0.70029931    -0.27500
C198        C  0.97716469  0.09344287  0.73044895     0.06100
C199        C  0.94813541  0.11615959  0.73828021     0.25700
C200        C  0.90170791  0.11636370  0.71688012    -0.12000
C201        C  0.88266787  0.09381103  0.68750906    -0.25900
C202        C  0.91193535  0.07120284  0.67902835     0.36500
C203        C  0.02662755  0.09341451  0.75330936     0.06100
F204        F  0.96419300  0.13773161  0.76827925    -0.19700
H205        H  0.88022258  0.13391146  0.72488173     0.15900
F206        F  0.89545341  0.04913111  0.65049621    -0.23400
H207        H  0.98065346  0.05360347  0.69315160     0.17700
C208        C  0.04646561  0.07026937  0.78066756     0.25700
C209        C  0.09284462  0.07118787  0.80311470    -0.12000
C210        C  0.12023234  0.09522104  0.79891973    -0.26000
C211        C  0.10022183  0.11823052  0.77101825     0.36600
C212        C  0.05411113  0.11721853  0.74862253    -0.27600
F213        F  0.02075067  0.04704677  0.78664100    -0.19700
H214        H  0.10729286  0.05309384  0.82391591     0.15900
F215        F  0.12549693  0.14146427  0.76379545    -0.23500
H216        H  0.03988486  0.13507624  0.72699407     0.17800
C217        C  0.56503640  0.00031233  0.50786322    -0.27500
C218        C  0.52038366  0.00555693  0.51935146     0.06100
C219        C  0.51600499  0.02190530  0.56079926     0.25700
C220        C  0.55507354  0.03463379  0.58727358    -0.12000
C221        C  0.59933055  0.03040959  0.57414921    -0.25900
C222        C  0.60417637  0.01214951  0.53540539     0.36500
C223        C  0.47930805  0.99317882  0.48844853     0.06100
F224        F  0.47418464  0.02558738  0.57584736    -0.19700
H225        H  0.55061550  0.04845039  0.61734142     0.15900
F226        F  0.64628521  0.00744603  0.52166019    -0.23400
H227        H  0.56966979  0.98772021  0.47638473     0.17700
C228        C  0.43799661  0.00859568  0.47449039     0.25700
C229        C  0.39944653  0.99567057  0.44708913    -0.12000
C230        C  0.40184419  0.96750741  0.43187220    -0.26000
C231        C  0.44435754  0.95287604  0.44314433     0.36600
C232        C  0.48199022  0.96544024  0.47166959    -0.27600
F233        F  0.43488439  0.03617179  0.48675708    -0.19700
H234        H  0.36747450  0.00752535  0.43869353     0.15900
F235        F  0.44947029  0.92584069  0.42857270    -0.23500
H236        H  0.51318746  0.95303052  0.48157745     0.17800
C237        C  0.23620708  0.99473324  0.57031138    -0.27500
C238        C  0.28007349  0.00420956  0.59232385     0.06100
C239        C  0.31981942  0.99093215  0.57939759     0.25700
C240        C  0.31554618  0.96873913  0.54580237    -0.12000
C241        C  0.27174104  0.95963145  0.52314733    -0.25900
C242        C  0.23198788  0.97298790  0.53567984     0.36500
C243        C  0.28394694  0.02609019  0.63150757     0.06100
F244        F  0.36298666  0.00000773  0.59787555    -0.19700
H245        H  0.34684095  0.95965605  0.53559086     0.15900
F246        F  0.18901000  0.96517845  0.51425974    -0.23400
H247        H  0.20496072  0.00396998  0.58028019     0.17700
C248        C  0.25472063  0.05006506  0.62845279     0.25700
C249        C  0.25366017  0.06746257  0.66936056    -0.12000
C250        C  0.28204830  0.06135702  0.71356804    -0.26000
C251        C  0.31462152  0.03929031  0.71474339     0.36600
C252        C  0.31494039  0.02169746  0.67459681    -0.27600
F253        F  0.22625877  0.05620101  0.58649237    -0.19700
H254        H  0.22877595  0.08457316  0.66729187     0.15900
F255        F  0.34467306  0.03368669  0.75589486    -0.23500
H256        H  0.33784571  0.00358175  0.67847780     0.17800
C257        C  0.24127996  0.96480834  0.13554586    -0.27500
C258        C  0.25784512  0.99271592  0.13928631     0.06100
C259        C  0.27249407  0.00404348  0.18573726     0.25700
C260        C  0.27153540  0.98769983  0.22724149    -0.12000
C261        C  0.25542488  0.95963470  0.22401129    -0.25900
C262        C  0.24004424  0.94833609  0.17746051     0.36500
C263        C  0.25966462  0.01022061  0.09516761     0.06100
F264        F  0.28662985  0.03129149  0.19124682    -0.19700
H265        H  0.28312660  0.99740723  0.26224208     0.15900
F266        F  0.22371212  0.92155827  0.17229546    -0.23400
H267        H  0.22965503  0.95569090  0.10006370     0.17700
C268        C  0.30024370  0.02501072  0.08941978     0.25700
C269        C  0.30097217  0.04292290  0.04967972    -0.12000
C270        C  0.26170713  0.04615344  0.01391487    -0.26000
C271        C  0.22144056  0.03068316  0.01885648     0.36600
C272        C  0.22048348  0.01302993  0.05930046    -0.27600
F273        F  0.33973343  0.02160231  0.12161383    -0.19700
H274        H  0.33307240  0.05367442  0.04627468     0.15900
F275        F  0.18301405  0.03259444  0.98484213    -0.23500
H276        H  0.18888941  0.00178238  0.06293417     0.17800
C277        C  0.51494051  0.98431735  0.04866058    -0.27500
C278        C  0.51926324  0.99304545  0.00111738     0.06100
C279        C  0.56248424  0.99066553  0.98471973     0.25700
C280        C  0.60051790  0.97987430  0.01540713    -0.12000
C281        C  0.59573539  0.97037131  0.06214870    -0.25900
C282        C  0.55273999  0.97252568  0.07873264     0.36500
C283        C  0.47942928  0.00594268  0.96971398     0.06100
F284        F  0.56749020  0.99759275  0.93832887    -0.19700
H285        H  0.63310589  0.97728386  0.00152950     0.15900
F286        F  0.54730777  0.96292146  0.12361505    -0.23400
H287        H  0.48227223  0.98652326  0.06243811     0.17700
C288        C  0.43472690  0.99417287  0.96546576     0.25700
C289        C  0.39685118  0.00859083  0.93998823    -0.12000
C290        C  0.40312570  0.03484662  0.91851136    -0.26000
C291        C  0.44834562  0.04547055  0.91977631     0.36600
C292        C  0.48588143  0.03127365  0.94558739    -0.27600
F293        F  0.42747042  0.96919743  0.98702065    -0.19700
H294        H  0.36238847  0.00004226  0.93965123     0.15900
F295        F  0.45616731  0.07041998  0.89836772    -0.23500
H296        H  0.51984856  0.04088003  0.94859421     0.17800
C297        C  0.70344270  0.96485813  0.89809531    -0.27500
C298        C  0.74047982  0.98390873  0.89913138     0.06100
C299        C  0.77563229  0.98380594  0.93957303     0.25700
C300        C  0.77272887  0.96580957  0.97893974    -0.12000
C301        C  0.73454511  0.94762141  0.97913939    -0.25900
C302        C  0.70039039  0.94685807  0.93749601     0.36500
C303        C  0.74215691  0.00360765  0.85776253     0.06100
F304        F  0.81276637  0.00117604  0.94111747    -0.19700
H305        H  0.79975362  0.96695717  0.01016648     0.15900
F306        F  0.66305825  0.92960291  0.93538947    -0.23400
H307        H  0.67600427  0.96449580  0.86717355     0.17700
C308        C  0.73737363  0.99320082  0.81005306     0.25700
C309        C  0.73717375  0.01161284  0.77090880    -0.12000
C310        C  0.74176852  0.04104691  0.77790250    -0.26000
C311        C  0.74741908  0.05150976  0.82592269     0.36600
C312        C  0.74756970  0.03288220  0.86541813    -0.27600
F313        F  0.73364866  0.96505372  0.80122749    -0.19700
H314        H  0.73348397  0.00251327  0.73475722     0.15900
F315        F  0.75222973  0.07957792  0.83479944    -0.23500
H316        H  0.75112632  0.04136447  0.90201330     0.17800
C317        C  0.70114866  0.00287749  0.31406040    -0.27500
C318        C  0.72911342  0.99702794  0.35846186     0.06100
C319        C  0.75462963  0.97156365  0.36310428     0.25700
C320        C  0.75281034  0.95288764  0.32338583    -0.12000
C321        C  0.72543132  0.95922965  0.27856984    -0.25900
C322        C  0.69892639  0.98433666  0.27489387     0.36500
C323        C  0.72933919  0.01742107  0.39942869     0.06100
F324        F  0.78069502  0.96450231  0.40606477    -0.19700
H325        H  0.77363499  0.93385536  0.32733816     0.15900
F326        F  0.67085717  0.99134638  0.23308193    -0.23400
H327        H  0.68109494  0.02220797  0.30935755     0.17700
C328        C  0.77077805  0.02687178  0.42726939     0.25700
C329        C  0.76944269  0.04592338  0.46572408    -0.12000
C330        C  0.72694609  0.05640318  0.47658290    -0.26000
C331        C  0.68572346  0.04801453  0.44702531     0.36600
C332        C  0.68706195  0.02859930  0.40941779    -0.27600
F333        F  0.81255466  0.01799295  0.41710648    -0.19700
H334        H  0.80171346  0.05204020  0.48773044     0.15900
F335        F  0.64368130  0.05709461  0.45618216    -0.23500
H336        H  0.65460208  0.02176846  0.38860540     0.17800
C337        C  0.42797531  0.86528719  0.23562400    -0.27500
C338        C  0.46810201  0.85372278  0.26269996     0.06100
C339        C  0.46622002  0.84490605  0.31090903     0.25700
C340        C  0.42575182  0.84887557  0.33190703    -0.12000
C341        C  0.38613667  0.86142374  0.30523627    -0.25900
C342        C  0.38748203  0.86894646  0.25624498     0.36500
C343        C  0.51240947  0.85363520  0.24170517     0.06100
F344        F  0.50367187  0.83278716  0.33800450    -0.19700
H345        H  0.42581554  0.84269147  0.36947614     0.15900
F346        F  0.35059100  0.88140793  0.22872354    -0.23400
H347        H  0.42849200  0.87283688  0.19889115     0.17700
C348        C  0.51368957  0.84576743  0.19291167     0.25700
C349        C  0.55395673  0.84986232  0.17170788    -0.12000
C350        C  0.59406872  0.86152819  0.19873358    -0.26000
C351        C  0.59335917  0.86808734  0.24825259     0.36600
C352        C  0.55300471  0.86430262  0.26915433    -0.27600
F353        F  0.47577354  0.83448617  0.16542422    -0.19700
H354        H  0.55341446  0.84439011  0.13374553     0.15900
F355        F  0.63072418  0.87981051  0.27601518    -0.23500
H356        H  0.55294762  0.87110666  0.30638868     0.17800
C357        C  0.04309372  0.94337746  0.27291931    -0.27500
C358        C  0.01566520  0.91901550  0.27333835     0.06100
C359        C  0.03505816  0.89516427  0.29904817     0.25700
C360        C  0.08128958  0.89533260  0.32156083    -0.12000
C361        C  0.10916661  0.91937331  0.31981155    -0.25900
C362        C  0.08914248  0.94371950  0.29620519     0.36500
C363        C  0.96750900  0.91831200  0.24609646     0.06100
F364        F  0.00939169  0.87158017  0.30240894    -0.19700
H365        H  0.09560337  0.87634610  0.33968136     0.15900
F366        F  0.11475504  0.96732904  0.29289065    -0.23400
H367        H  0.02944331  0.96194016  0.25298312     0.17700
C368        C  0.93659777  0.94095415  0.24856864     0.25700
C369        C  0.89122609  0.93962834  0.22381123    -0.12000
C370        C  0.87525336  0.91557137  0.19679437    -0.26000
C371        C  0.90623706  0.89314827  0.19350242     0.36600
C372        C  0.95197636  0.89471602  0.21740461    -0.27600
F373        F  0.94940947  0.96385162  0.27671300    -0.19700
H374        H  0.86787071  0.95702367  0.22759403     0.15900
F375        F  0.89239977  0.86975392  0.16712253    -0.23500
H376        H  0.97528786  0.87732008  0.21360621     0.17800
C377        C  0.27172423  0.28918200  0.00931691    -0.27500
C378        C  0.25617888  0.26431298  0.02912144     0.06100
C379        C  0.24128372  0.26555233  0.07522639     0.25700
C380        C  0.24032743  0.29129797  0.09970745    -0.12000
C381        C  0.25308228  0.31625293  0.07824957    -0.25900
C382        C  0.26958134  0.31496295  0.03319587     0.36500
C383        C  0.25567439  0.23732036  0.00161841     0.06100
F384        F  0.22497379  0.24225052  0.09541303    -0.19700
H385        H  0.22666539  0.29199603  0.13391654     0.15900
F386        F  0.28253570  0.33880262  0.01168720    -0.23400
H387        H  0.28486688  0.28876941  0.97483324     0.17700
C388        C  0.23996727  0.23602386  0.95105014     0.25700
C389        C  0.24178226  0.21058385  0.92559127    -0.12000
C390        C  0.25862690  0.18584986  0.95002158    -0.26000
C391        C  0.27263963  0.18710578  0.00103197     0.36600
C392        C  0.27172658  0.21254491  0.02602484    -0.27600
F393        F  0.22263775  0.25928300  0.92615921    -0.19700
H394        H  0.23069646  0.21039031  0.88658868     0.15900
F395        F  0.28884980  0.16399835  0.02711447    -0.23500
H396        H  0.28481656  0.21291318  0.06462359     0.17800
C397        C  0.76709020  0.23495268  0.57015834    -0.27500
C398        C  0.74532642  0.23940138  0.52176735     0.06100
C399        C  0.71656615  0.21794910  0.49919064     0.25700
C400        C  0.71047130  0.19286569  0.52373172    -0.12000
C401        C  0.73200605  0.18822279  0.57202523    -0.25900
C402        C  0.76015023  0.20983149  0.59528817     0.36500
C403        C  0.75176109  0.26626091  0.49488392     0.06100
F404        F  0.69285514  0.22143089  0.45366003    -0.19700
H405        H  0.68788952  0.17709929  0.50457972     0.15900
F406        F  0.78116629  0.20673816  0.64199159    -0.23400
H407        H  0.78991694  0.25083485  0.58854802     0.17700
C408        C  0.75103170  0.29275639  0.51775492     0.25700
C409        C  0.75581248  0.31763836  0.49168331    -0.12000
C410        C  0.76076430  0.31697316  0.44196871    -0.26000
C411        C  0.76103279  0.29057752  0.41886283     0.36600
C412        C  0.75722567  0.26562636  0.44520774    -0.27600
F413        F  0.74469827  0.29479790  0.56508664    -0.19700
H414        H  0.75562636  0.33761295  0.51062497     0.15900
F415        F  0.76693827  0.28873341  0.37137427    -0.23500
H416        H  0.75923221  0.24566809  0.42666759     0.17800
C417        C  0.46521214  0.39444953  0.21508837    -0.27500
C418        C  0.48159049  0.41803115  0.24326510     0.06100
C419        C  0.45171735  0.44132768  0.24470250     0.25700
C420        C  0.40663162  0.44079674  0.21881638    -0.12000
C421        C  0.38994923  0.41686526  0.19185921    -0.25900
C422        C  0.41980637  0.39363832  0.19026821     0.36500
C423        C  0.52989583  0.41813980  0.27020287     0.06100
F424        F  0.46525456  0.46409895  0.27288264    -0.19700
H425        H  0.38395402  0.45864128  0.22180271     0.15900
F426        F  0.40507098  0.37004178  0.16491023    -0.23400
H427        H  0.48763992  0.37647077  0.21233109     0.17700
C428        C  0.54839484  0.39425719  0.29651472     0.25700
C429        C  0.59514665  0.39344907  0.31732039    -0.12000
C430        C  0.62444408  0.41656217  0.31329511    -0.26000
C431        C  0.60532679  0.44107254  0.28930534     0.36600
C432        C  0.55872700  0.44167719  0.26776280    -0.27600
F433        F  0.52134138  0.37156127  0.30200827    -0.19700
H434        H  0.60864707  0.37445253  0.33602528     0.15900
F435        F  0.63213875  0.46392639  0.28407145    -0.23500
H436        H  0.54570036  0.46024392  0.24742791     0.17800
C437        C  0.94489993  0.35571667  0.24045762    -0.27500
C438        C  0.98798840  0.35527022  0.27077506     0.06100
C439        C  0.98851904  0.35499365  0.32167532     0.25700
C440        C  0.94697639  0.35622157  0.34135317    -0.12000
C441        C  0.90389661  0.35774306  0.31093149    -0.25900
C442        C  0.90341277  0.35679844  0.26004301     0.36500
C443        C  0.03174000  0.35736011  0.24898539     0.06100
F444        F  0.02920667  0.35397683  0.35256466    -0.19700
H445        H  0.94874461  0.35706658  0.38057674     0.15900
F446        F  0.86296219  0.35802602  0.22882646    -0.23400
H447        H  0.94322102  0.35648924  0.20125219     0.17700
C448        C  0.03823278  0.34188269  0.20704871     0.25700
C449        C  0.07762997  0.34627786  0.18446692    -0.12000
C450        C  0.11183393  0.36565376  0.20383207    -0.26000
C451        C  0.10593317  0.38050672  0.24651342     0.36600
C452        C  0.06623810  0.37656973  0.26833884    -0.27600
F453        F  0.00663175  0.32239536  0.18796356    -0.19700
H454        H  0.08145947  0.33446767  0.15189086     0.15900
F455        F  0.13743108  0.40000048  0.26595486    -0.23500
H456        H  0.06181799  0.38939154  0.29961474     0.17800
C457        C  0.78510900  0.71952524  0.00569330    -0.27500
C458        C  0.75047654  0.73885375  0.98724375     0.06100
C459        C  0.72211830  0.73233829  0.94268841     0.25700
C460        C  0.72807225  0.70683109  0.91816285    -0.12000
C461        C  0.76189314  0.68718040  0.93782642    -0.25900
C462        C  0.79065735  0.69410237  0.98178638     0.36500
C463        C  0.74519847  0.76573676  0.01448716     0.06100
F464        F  0.68778463  0.75019352  0.92346158    -0.19700
H465        H  0.70559736  0.70218653  0.88443533     0.15900
F466        F  0.82527988  0.67653330  0.00145391    -0.23400
H467        H  0.80859460  0.72423396  0.03870024     0.17700
C468        C  0.74699113  0.76606666  0.06571302     0.25700
C469        C  0.74243140  0.79149453  0.09075869    -0.12000
C470        C  0.73547100  0.81715738  0.06544012    -0.26000
C471        C  0.73475739  0.81681978  0.01431739     0.36600
C472        C  0.73974054  0.79153154  0.98951249    -0.27600
F473        F  0.75138611  0.74166052  0.09155283    -0.19700
H474        H  0.74260720  0.79092916  0.12978755     0.15900
F475        F  0.72914847  0.84101199  0.98786243    -0.23500
H476        H  0.73963955  0.79221862  0.95050334     0.17800
C477        C  0.76052318  0.54188508  0.63248537    -0.27500
C478        C  0.77735196  0.51402739  0.63705164     0.06100
C479        C  0.79338458  0.50329733  0.68349890     0.25700
C480        C  0.79202659  0.51988163  0.72463189    -0.12000
C481        C  0.77455643  0.54770812  0.72082346    -0.25900
C482        C  0.75928704  0.55872647  0.67400273     0.36500
C483        C  0.77777113  0.49564527  0.59398760     0.06100
F484        F  0.80890119  0.47629131  0.68924443    -0.19700
H485        H  0.80410711  0.51049373  0.75980767     0.15900
F486        F  0.74255322  0.58543553  0.66826725    -0.23400
H487        H  0.74828209  0.55053079  0.59675927     0.17700
C488        C  0.73641328  0.48855299  0.56376273     0.25700
C489        C  0.73698041  0.46929290  0.52556827    -0.12000
C490        C  0.77874644  0.45668313  0.51705746    -0.26000
C491        C  0.82022978  0.46415678  0.54713641     0.36600
C492        C  0.81954652  0.48334328  0.58523497    -0.27600
F493        F  0.69538002  0.49970123  0.57197297    -0.19700
H494        H  0.70472678  0.46428803  0.50249559     0.15900
F495        F  0.86178711  0.45394243  0.53851900    -0.23500
H496        H  0.85181370  0.48874113  0.60797852     0.17800
C497        C  0.72747933  0.47200687  0.14427689    -0.27500
C498        C  0.76627881  0.48828701  0.13723185     0.06100
C499        C  0.80813695  0.48437967  0.16895347     0.25700
C500        C  0.81028147  0.46568274  0.20814512    -0.12000
C501        C  0.77115917  0.45007342  0.21592217    -0.25900
C502        C  0.72991822  0.45290448  0.18307690     0.36500
C503        C  0.76296488  0.50923323  0.09694302     0.06100
F504        F  0.84695262  0.49869767  0.16221079    -0.19700
H505        H  0.84231558  0.46389109  0.23332591     0.15900
F506        F  0.69110225  0.43885187  0.19063266    -0.23400
H507        H  0.69472177  0.47479333  0.12068666     0.17700
C508        C  0.74301156  0.50170268  0.04952831     0.25700
C509        C  0.74185317  0.52097363  0.01138558    -0.12000
C510        C  0.76137585  0.54803428  0.01918682    -0.26000
C511        C  0.78039954  0.55590189  0.06678365     0.36600
C512        C  0.78069868  0.53672662  0.10534161    -0.27600
F513        F  0.72703750  0.47514968  0.03940294    -0.19700
H514        H  0.72787525  0.51402996  0.97498235     0.15900
F515        F  0.79906738  0.58190569  0.07594445    -0.23500
H516        H  0.79541205  0.54323525  0.14175954     0.17800
C517        C  0.98897894  0.53201324  0.96384982    -0.27500
C518        C  0.98529233  0.50333189  0.97398201     0.06100
C519        C  0.94255631  0.48959378  0.96032013     0.25700
C520        C  0.90379305  0.50486703  0.93825625    -0.12000
C521        C  0.90725525  0.53396602  0.92966890    -0.25900
C522        C  0.95086175  0.54716905  0.94192918     0.36500
C523        C  0.02576189  0.48903244  0.00194489     0.06100
F524        F  0.93819848  0.46159939  0.96880026    -0.19700
H525        H  0.87088604  0.49413458  0.92932205     0.15900
F526        F  0.95677373  0.57518623  0.93532411    -0.23400
H527        H  0.02123166  0.54315832  0.97489461     0.17700
C528        C  0.07026520  0.49258338  0.98898616     0.25700
C529        C  0.10907446  0.48177224  0.01859643    -0.12000
C530        C  0.10411479  0.46657816  0.06079998    -0.26000
C531        C  0.05967496  0.46282464  0.07370329     0.36600
C532        C  0.02088066  0.47425827  0.04468857    -0.27600
F533        F  0.07609132  0.50596400  0.94707293    -0.19700
H534        H  0.14282771  0.48407117  0.00721081     0.15900
F535        F  0.05381960  0.44803549  0.11423024    -0.23500
H536        H  0.98708836  0.47188317  0.05592944     0.17800
C537        C  0.20290332  0.72231295  0.50216030    -0.27500
C538        C  0.24463446  0.73736438  0.50942656     0.06100
C539        C  0.28161796  0.72690637  0.54356502     0.25700
C540        C  0.27627504  0.70225058  0.57042569    -0.12000
C541        C  0.23433386  0.68734542  0.56299948    -0.25900
C542        C  0.19780265  0.69760824  0.52824635     0.36500
C543        C  0.24786020  0.76497706  0.48424840     0.06100
F544        F  0.32323655  0.74021727  0.55018894    -0.19700
H545        H  0.30521226  0.69440303  0.59592385     0.15900
F546        F  0.15650112  0.68392635  0.52002729    -0.23400
H547        H  0.17364407  0.73004949  0.47697147     0.17700
C548        C  0.23272871  0.76853066  0.43386072     0.25700
C549        C  0.23522085  0.79511377  0.41178724    -0.12000
C550        C  0.25245603  0.81872702  0.43945914    -0.26000
C551        C  0.26640491  0.81502480  0.49013307     0.36600
C552        C  0.26412952  0.78860369  0.51182001    -0.27600
F553        F  0.21669175  0.74620817  0.40569031    -0.19700
H554        H  0.22443956  0.79706991  0.37288423     0.15900
F555        F  0.28291878  0.83683617  0.51930376    -0.23500
H556        H  0.27471206  0.78670414  0.55077653     0.17800
C557        C  0.27928485  0.47674913  0.92224549    -0.27500
C558        C  0.23728590  0.48339162  0.89245150     0.06100
C559        C  0.19649347  0.46988244  0.90194952     0.25700
C560        C  0.19765062  0.45122046  0.94118759    -0.12000
C561        C  0.23912401  0.44591103  0.97273375    -0.25900
C562        C  0.28026500  0.45845762  0.96215194     0.36500
C563        C  0.23605907  0.50419594  0.85165148     0.06100
F564        F  0.15481614  0.47590019  0.87513611    -0.19700
H565        H  0.16525729  0.44229745  0.94861191     0.15900
F566        F  0.32132992  0.45362146  0.99100147    -0.23400
H567        H  0.31146975  0.48602017  0.91501689     0.17700
C568        C  0.26047729  0.53000929  0.85738099     0.25700
C569        C  0.25919776  0.54896717  0.81815314    -0.12000
C570        C  0.23357451  0.54262305  0.77250338    -0.26000
C571        C  0.20807308  0.51719492  0.76746226     0.36600
C572        C  0.20985845  0.49826466  0.80621693    -0.27600
F573        F  0.28539786  0.53705132  0.90093408    -0.19700
H574        H  0.27932921  0.56819843  0.82311931     0.15900
F575        F  0.18157993  0.51027272  0.72464602    -0.23500
H576        H  0.19123161  0.47854109  0.80017762     0.17800
C577        C  0.26279258  0.47407447  0.35940861    -0.27500
C578        C  0.24827230  0.50219782  0.35138791     0.06100
C579        C  0.23290663  0.51140727  0.30379787     0.25700
C580        C  0.23142282  0.49277309  0.26498109    -0.12000
C581        C  0.24561808  0.46447782  0.27241117    -0.25900
C582        C  0.26139787  0.45522547  0.32026751     0.36500
C583        C  0.24730603  0.52174532  0.39259657     0.06100
F584        F  0.21992497  0.53864886  0.29471268    -0.19700
H585        H  0.21948300  0.50082846  0.22877353     0.15900
F586        F  0.27537048  0.42816636  0.32936360    -0.23400
H587        H  0.27451706  0.46664553  0.39608358     0.17700
C588        C  0.20577252  0.53528547  0.39894381     0.25700
C589        C  0.20432822  0.55314607  0.43851906    -0.12000
C590        C  0.24405534  0.55757570  0.47308261    -0.26000
C591        C  0.28617354  0.54482154  0.46563368     0.36600
C592        C  0.28759647  0.52696808  0.42570319    -0.27600
F593        F  0.16593591  0.53005775  0.36824993    -0.19700
H594        H  0.17122283  0.56219588  0.44350614     0.15900
F595        F  0.32561460  0.54892076  0.49751101    -0.23500
H596        H  0.32002286  0.51696129  0.42085023     0.17800
C597        C  0.54502022  0.56761072  0.79316815    -0.27500
C598        C  0.52845016  0.58863676  0.75908174     0.06100
C599        C  0.55911370  0.60969829  0.74811041     0.25700
C600        C  0.60484707  0.61002008  0.77125803    -0.12000
C601        C  0.62168229  0.58909537  0.80521954    -0.25900
C602        C  0.59140630  0.56763798  0.81581645     0.36500
C603        C  0.47919144  0.58921592  0.73568915     0.06100
F604        F  0.54526338  0.62961784  0.71385482    -0.19700
H605        H  0.62761839  0.62638669  0.76140169     0.15900
F606        F  0.60628284  0.54709336  0.84852794    -0.23400
H607        H  0.52190779  0.55134734  0.80265069     0.17700
C608        C  0.45712770  0.56498170  0.71422792     0.25700
C609        C  0.41074821  0.56621715  0.69214457    -0.12000
C610        C  0.38542233  0.59162166  0.69085552    -0.26000
C611        C  0.40803010  0.61597110  0.71162525     0.36600
C612        C  0.45410766  0.61460614  0.73401178    -0.27600
F613        F  0.48052286  0.54021124  0.71395107    -0.19700
H614        H  0.39450951  0.54710279  0.67657462     0.15900
F615        F  0.38555975  0.64108724  0.71149546    -0.23500
H616        H  0.47011632  0.63350114  0.75076018     0.17800
C617        C  0.01560073  0.64404546  0.68919913    -0.27500
C618        C  0.02138178  0.65086628  0.73910286     0.06100
C619        C  0.06676704  0.65514933  0.76352317     0.25700
C620        C  0.10513063  0.65051039  0.73963401    -0.12000
C621        C  0.09941864  0.64215827  0.69049344    -0.25900
C622        C  0.05398668  0.64013882  0.66491333     0.36500
C623        C  0.98071526  0.65077720  0.76628164     0.06100
F624        F  0.07424722  0.66339928  0.81086238    -0.19700
H625        H  0.13952246  0.65288789  0.76011049     0.15900
F626        F  0.04637454  0.63283563  0.61710202    -0.23400
H627        H  0.98135383  0.64031110  0.66928184     0.17700
C628        C  0.93718444  0.66182041  0.74583789     0.25700
C629        C  0.89831207  0.65813280  0.76948596    -0.12000
C630        C  0.90218792  0.64420820  0.81464906    -0.26000
C631        C  0.94604942  0.63469307  0.83634505     0.36600
C632        C  0.98450799  0.63750498  0.81208057    -0.27600
F633        F  0.93196119  0.67593643  0.70282538    -0.19700
H634        H  0.86488992  0.66575509  0.75204942     0.15900
F635        F  0.95123656  0.62080427  0.87947007    -0.23500
H636        H  0.01694410  0.62807190  0.82841736     0.17800
C637        C  0.99978596  0.46565073  0.44318397    -0.27500
C638        C  0.99516505  0.49052081  0.46917008     0.06100
C639        C  0.95120484  0.50282592  0.46845943     0.25700
C640        C  0.91206273  0.48970649  0.44359771    -0.12000
C641        C  0.91623055  0.46402914  0.41952539    -0.25900
C642        C  0.96064087  0.45244398  0.41834694     0.36500
C643        C  0.03622088  0.50402295  0.49638362     0.06100
F644        F  0.94586762  0.52678362  0.49390470    -0.19700
H645        H  0.87833245  0.49878237  0.44569988     0.15900
F646        F  0.96620752  0.42791946  0.39454069    -0.23400
H647        H  0.03362928  0.45634921  0.44260506     0.17700
C648        C  0.06593080  0.48945338  0.53274373     0.25700
C649        C  0.10294364  0.50361843  0.56029431    -0.12000
C650        C  0.10967345  0.53234659  0.55202185    -0.26000
C651        C  0.08086714  0.54644940  0.51448025     0.36600
C652        C  0.04462219  0.53232320  0.48685818    -0.27600
F653        F  0.05800735  0.46202202  0.54282261    -0.19700
H654        H  0.12524986  0.49253929  0.58884577     0.15900
F655        F  0.08810618  0.57395564  0.50413792    -0.23500
H656        H  0.02264669  0.54358489  0.45825195     0.17800
loop_ 
_geom_bond_atom_site_label_1 
_geom_bond_atom_site_label_2 
_geom_bond_distance 
_geom_bond_site_symmetry_2 
_ccdc_geom_bond_type 
Fe1          O17   2.062       .  S
Fe1           O7   2.139       .  S
Fe1          O14   2.141       .  S
Fe1           O6   2.054       .  S
Fe1          O12   1.937       .  S
Fe2           O5   2.020       .  S
Fe2           O9   2.079       .  S
Fe2          O13   2.021       .  S
Fe2          O18   2.094       .  S
Fe2          O12   1.934       .  S
Fe3          O21   2.098       .  S
Fe3           O8   2.046       .  S
Fe3          O15   2.027       .  S
Fe3           O4   2.081       .  S
Fe3          O12   1.952       .  S
O4           C11   1.271       .  A
O5           C19   1.258       .  A
O6           C11   1.267       .  A
O7           C10   1.288       .  A
O8           C20   1.268       .  A
O9           C22   1.269       .  A
C10          O15   1.268       .  A
C10         C570   1.492       .  S
C11         C610   1.488       .  S
O13          C16   1.266       .  A
O14          C16   1.288       .  A
C16         C541   1.485       .  S
O17          C22   1.267       .  A
O18          C20   1.277       .  A
C19          O21   1.270       .  A
C19         C650   1.458       .  S
C20         C590   1.480       .  S
C22         C621   1.491       .  S
Fe23         O39   2.045       .  S
Fe23         O29   2.126       .  S
Fe23         O36   2.136       .  S
Fe23         O28   2.042       .  S
Fe23         O34   1.942       .  S
Fe24         O27   2.016       .  S
Fe24         O31   2.099       .  S
Fe24         O35   2.033       .  S
Fe24         O40   2.113       .  S
Fe24         O34   1.931       .  S
Fe25         O43   2.115       .  S
Fe25         O30   2.035       .  S
Fe25         O37   2.025       .  S
Fe25         O26   2.101       .  S
Fe25         O34   1.942       .  S
O26          C33   1.276       .  A
O27          C41   1.260       .  A
O28          C33   1.268       .  A
O29          C32   1.282       .  A
O30          C42   1.265       .  A
O31          C44   1.276       .  A
C32          O37   1.266       .  A
C32         C481   1.491       .  S
C33         C601   1.481       .  S
O35          C38   1.267       .  A
O36          C38   1.284       .  A
C38         C461   1.494       .  S
O39          C44   1.265       .  A
O40          C42   1.278       .  A
C41          O43   1.277       .  A
C41         C521   1.483       .  S
C42         C510   1.482   1_556  S
C44         C630   1.483       .  S
Fe45         O61   2.129       .  S
Fe45         O51   2.061       .  S
Fe45         O58   2.056       .  S
Fe45         O50   2.115       .  S
Fe45         O56   1.933       .  S
Fe46         O49   2.101       .  S
Fe46         O53   2.040       .  S
Fe46         O57   2.091       .  S
Fe46         O62   2.024       .  S
Fe46         O56   1.932       .  S
Fe47         O65   2.046       .  S
Fe47         O52   2.093       .  S
Fe47         O59   2.099       .  S
Fe47         O48   2.034       .  S
Fe47         O56   1.932       .  S
O48          C55   1.264       .  A
O49          C63   1.277       .  A
O50          C55   1.278       .  A
O51          C54   1.273       .  A
O52          C64   1.274       .  A
O53          C66   1.268       .  A
C54          O59   1.277       .  A
C54         C430   1.488       .  S
C55         C501   1.473       .  S
O57          C60   1.273       .  A
O58          C60   1.267       .  A
C60         C441   1.491       .  S
O61          C66   1.284       .  A
O62          C64   1.261       .  A
C63          O65   1.268       .  A
C63         C490   1.481       .  S
C64         C641   1.468       .  S
C66         C410   1.491       .  S
Fe67         O83   2.113       .  S
Fe67         O73   2.050       .  S
Fe67         O80   2.044       .  S
Fe67         O72   2.108       .  S
Fe67         O78   1.933       .  S
Fe68         O71   2.112       .  S
Fe68         O75   2.029       .  S
Fe68         O79   2.103       .  S
Fe68         O84   2.030       .  S
Fe68         O78   1.929       .  S
Fe69         O87   2.052       .  S
Fe69         O74   2.105       .  S
Fe69         O81   2.105       .  S
Fe69         O70   2.027       .  S
Fe69         O78   1.929       .  S
O70          C77   1.267       .  A
O71          C85   1.280       .  A
O72          C77   1.279       .  A
O73          C76   1.268       .  A
O74          C86   1.276       .  A
O75          C88   1.266       .  A
C76          O81   1.277       .  A
C76         C421   1.484       .  S
C77         C581   1.483       .  S
O79          C82   1.275       .  A
O80          C82   1.264       .  A
C82         C450   1.485       .  S
O83          C88   1.281       .  A
O84          C86   1.261       .  A
C85          O87   1.270       .  A
C85         C561   1.490   1_554  S
C86         C530   1.466       .  S
C88         C381   1.471       .  S
Fe89        O105   2.141       .  S
Fe89         O95   2.064       .  S
Fe89        O102   2.056       .  S
Fe89         O94   2.139       .  S
Fe89        O100   1.936       .  S
Fe90         O93   2.118       .  S
Fe90         O97   2.031       .  S
Fe90        O101   2.093       .  S
Fe90        O106   2.036       .  S
Fe90        O100   1.936       .  S
Fe91        O109   2.041       .  S
Fe91         O96   2.090       .  S
Fe91        O103   2.081       .  S
Fe91         O92   2.024       .  S
Fe91        O100   1.938       .  S
O92          C99   1.268       .  A
O93         C107   1.281       .  A
O94          C99   1.287       .  A
O95          C98   1.268       .  A
O96         C108   1.270       .  A
O97         C110   1.267       .  A
C98         O103   1.270       .  A
C98         C370   1.482       .  S
C99         C321   1.491       .  S
O101        C104   1.273       .  A
O102        C104   1.266       .  A
C104        C350   1.492       .  S
O105        C110   1.288       .  A
O106        C108   1.259       .  A
C107        O109   1.269       .  A
C107        C301   1.489   1_554  S
C108        C281   1.457       .  S
C110        C470   1.496       .  S
Fe111       O127   2.134       .  S
Fe111       O117   2.053       .  S
Fe111       O124   2.048       .  S
Fe111       O116   2.122       .  S
Fe111       O122   1.932       .  S
Fe112       O115   2.111       .  S
Fe112       O119   2.034       .  S
Fe112       O123   2.098       .  S
Fe112       O128   2.022       .  S
Fe112       O122   1.928       .  S
Fe113       O131   2.046       .  S
Fe113       O118   2.121       .  S
Fe113       O125   2.105       .  S
Fe113       O114   2.028       .  S
Fe113       O122   1.937       .  S
O114        C121   1.267       .  A
O115        C129   1.278       .  A
O116        C121   1.282       .  A
O117        C120   1.270       .  A
O118        C130   1.279       .  A
O119        C132   1.269       .  A
C120        O125   1.278       .  A
C120        C361   1.487       .  S
C121        C261   1.491       .  S
O123        C126   1.273       .  A
O124        C126   1.265       .  A
C126        C341   1.491       .  S
O127        C132   1.286       .  A
O128        C130   1.261       .  A
C129        O131   1.266       .  A
C129        C241   1.485       .  S
C130        C230   1.483       .  S
C132        C550   1.497       .  S
Fe133       O149   2.041       .  S
Fe133       O139   2.116       .  S
Fe133       O146   2.123       .  S
Fe133       O138   2.049       .  S
Fe133       O144   1.947       .  S
Fe134       O137   2.023       .  S
Fe134       O141   2.080       .  S
Fe134       O145   2.027       .  S
Fe134       O150   2.083       .  S
Fe134       O144   1.936       .  S
Fe135       O153   2.099       .  S
Fe135       O140   2.061       .  S
Fe135       O147   2.033       .  S
Fe135       O136   2.098       .  S
Fe135       O144   1.946       .  S
O136        C143   1.277       .  A
O137        C151   1.262       .  A
O138        C143   1.269       .  A
O139        C142   1.279       .  A
O140        C152   1.270       .  A
O141        C154   1.269       .  A
C142        O147   1.266       .  A
C142        C250   1.483       .  S
C143        C210   1.488       .  S
O145        C148   1.266       .  A
O146        C148   1.284       .  A
C148        C390   1.489       .  S
O149        C154   1.263       .  A
O150        C152   1.273       .  A
C151        O153   1.275       .  A
C151        C290   1.471       .  S
C152        C270   1.487   1_556  S
C154        C181   1.477       .  S
Fe155       O171   2.049       .  S
Fe155       O161   2.130       .  S
Fe155       O168   2.134       .  S
Fe155       O160   2.047       .  S
Fe155       O166   1.945       .  S
Fe156       O159   2.035       .  S
Fe156       O163   2.075       .  S
Fe156       O167   2.035       .  S
Fe156       O172   2.102       .  S
Fe156       O166   1.940       .  S
Fe157       O175   2.110       .  S
Fe157       O162   2.047       .  S
Fe157       O169   2.027       .  S
Fe157       O158   2.095       .  S
Fe157       O166   1.944       .  S
O158        C165   1.274       .  A
O159        C173   1.262       .  A
O160        C165   1.266       .  A
O161        C164   1.285       .  A
O162        C174   1.266       .  A
O163        C176   1.269       .  A
C164        O169   1.268       .  A
C164        C310   1.494       .  S
C165        C201   1.489       .  S
O167        C170   1.270       .  A
O168        C170   1.286       .  A
C170        C401   1.498       .  S
O171        C176   1.264       .  A
O172        C174   1.276       .  A
C173        O175   1.277       .  A
C173        C221   1.474       .  S
C174        C330   1.485       .  S
C176        C190   1.474       .  S
C177        C178   1.402       .  A
C177        C182   1.394       .  A
C177        H187   1.083       .  S
C178        C183   1.479       .  S
C178        C179   1.406       .  A
C179        C180   1.399       .  A
C179        F184   1.358       .  S
C180        C181   1.406       .  A
C180        H185   1.083       .  S
C181        C182   1.408       .  A
C182        F186   1.358       .  S
C183        C188   1.407       .  A
C183        C192   1.404       .  A
C188        C189   1.394       .  A
C188        F193   1.358       .  S
C189        C190   1.402       .  A
C189        H194   1.084       .  S
C190        C191   1.408       .  A
C191        C192   1.400       .  A
C191        F195   1.357       .  S
C192        H196   1.083       .  S
C197        C198   1.406       .  A
C197        C202   1.404       .  A
C197        H207   1.083       .  S
C198        C203   1.487   1_655  S
C198        C199   1.405       .  A
C199        C200   1.395       .  A
C199        F204   1.358       .  S
C200        C201   1.408       .  A
C200        H205   1.083       .  S
C201        C202   1.410       .  A
C202        F206   1.357       .  S
C203        C208   1.408       .  A
C203        C212   1.403       .  A
C208        C209   1.403       .  A
C208        F213   1.357       .  S
C209        C210   1.407       .  A
C209        H214   1.083       .  S
C210        C211   1.412       .  A
C211        C212   1.396       .  A
C211        F215   1.358       .  S
C212        H216   1.083       .  S
C217        C218   1.408       .  A
C217        C222   1.395       .  A
C217        H227   1.083   1_545  S
C218        C223   1.487   1_545  S
C218        C219   1.408       .  A
C219        C220   1.399       .  A
C219        F224   1.358       .  S
C220        C221   1.406       .  A
C220        H225   1.084       .  S
C221        C222   1.404       .  A
C222        F226   1.357       .  S
C223        C228   1.412   1_565  A
C223        C232   1.401       .  A
C228        C229   1.402   1_545  A
C228        F233   1.357       .  S
C229        C230   1.405       .  A
C229        H234   1.083   1_565  S
C230        C231   1.413       .  A
C231        C232   1.389       .  A
C231        F235   1.358       .  S
C232        H236   1.083       .  S
C237        C238   1.408   1_565  A
C237        C242   1.402       .  A
C237        H247   1.083   1_565  S
C238        C243   1.495       .  S
C238        C239   1.410   1_545  A
C239        C240   1.399       .  A
C239        F244   1.358   1_565  S
C240        C241   1.406       .  A
C240        H245   1.083       .  S
C241        C242   1.408       .  A
C242        F246   1.357       .  S
C243        C248   1.414       .  A
C243        C252   1.403       .  A
C248        C249   1.407       .  A
C248        F253   1.357       .  S
C249        C250   1.404       .  A
C249        H254   1.083       .  S
C250        C251   1.409       .  A
C251        C252   1.393       .  A
C251        F255   1.358       .  S
C252        H256   1.082       .  S
C257        C258   1.408       .  A
C257        C262   1.406       .  A
C257        H267   1.083       .  S
C258        C263   1.487   1_565  S
C258        C259   1.404   1_565  A
C259        C260   1.392   1_545  A
C259        F264   1.358       .  S
C260        C261   1.410       .  A
C260        H265   1.083       .  S
C261        C262   1.409       .  A
C262        F266   1.357       .  S
C263        C268   1.406       .  A
C263        C272   1.406       .  A
C268        C269   1.395       .  A
C268        F273   1.358       .  S
C269        C270   1.408       .  A
C269        H274   1.083       .  S
C270        C271   1.410       .  A
C271        C272   1.404       .  A
C271        F275   1.357   1_554  S
C272        H276   1.083       .  S
C277        C278   1.407       .  A
C277        C282   1.396       .  A
C277        H287   1.083       .  S
C278        C283   1.476   1_564  S
C278        C279   1.407   1_554  A
C279        C280   1.391   1_556  A
C279        F284   1.358       .  S
C280        C281   1.400       .  A
C280        H285   1.084       .  S
C281        C282   1.402       .  A
C282        F286   1.358       .  S
C283        C288   1.408   1_545  A
C283        C292   1.401       .  A
C288        C289   1.397   1_565  A
C288        F293   1.358       .  S
C289        C290   1.404       .  A
C289        H294   1.083       .  S
C290        C291   1.408       .  A
C291        C292   1.389       .  A
C291        F295   1.358       .  S
C292        H296   1.083       .  S
C297        C298   1.406       .  A
C297        C302   1.400       .  A
C297        H307   1.083       .  S
C298        C303   1.487   1_565  S
C298        C299   1.403       .  A
C299        C300   1.399       .  A
C299        F304   1.357   1_565  S
C300        C301   1.410       .  A
C300        H305   1.083   1_556  S
C301        C302   1.410       .  A
C302        F306   1.357       .  S
C303        C308   1.401   1_545  A
C303        C312   1.409       .  A
C308        C309   1.393   1_565  A
C308        F313   1.358       .  S
C309        C310   1.412       .  A
C309        H314   1.083       .  S
C310        C311   1.409       .  A
C311        C312   1.407       .  A
C311        F315   1.357       .  S
C312        H316   1.083       .  S
C317        C318   1.401   1_545  A
C317        C322   1.392   1_545  A
C317        H327   1.083       .  S
C318        C323   1.492   1_565  S
C318        C319   1.412       .  A
C319        C320   1.409       .  A
C319        F324   1.357       .  S
C320        C321   1.407       .  A
C320        H325   1.083       .  S
C321        C322   1.413       .  A
C322        F326   1.358       .  S
C323        C328   1.408       .  A
C323        C332   1.406       .  A
C328        C329   1.403       .  A
C328        F333   1.357       .  S
C329        C330   1.408       .  A
C329        H334   1.083       .  S
C330        C331   1.409       .  A
C331        C332   1.396       .  A
C331        F335   1.358       .  S
C332        H336   1.083       .  S
C337        C338   1.404       .  A
C337        C342   1.397       .  A
C337        H347   1.083       .  S
C338        C343   1.494       .  S
C338        C339   1.411       .  A
C339        C340   1.404       .  A
C339        F344   1.357       .  S
C340        C341   1.407       .  A
C340        H345   1.083       .  S
C341        C342   1.412       .  A
C342        F346   1.358       .  S
C343        C348   1.411       .  A
C343        C352   1.404       .  A
C348        C349   1.403       .  A
C348        F353   1.357       .  S
C349        C350   1.407       .  A
C349        H354   1.083       .  S
C350        C351   1.412       .  A
C351        C352   1.399       .  A
C351        F355   1.358       .  S
C352        H356   1.083       .  S
C357        C358   1.407       .  A
C357        C362   1.401       .  A
C357        H367   1.083       .  S
C358        C363   1.493   1_455  S
C358        C359   1.409       .  A
C359        C360   1.399       .  A
C359        F364   1.357       .  S
C360        C361   1.406       .  A
C360        H365   1.083       .  S
C361        C362   1.409       .  A
C362        F366   1.357       .  S
C363        C368   1.408       .  A
C363        C372   1.409       .  A
C368        C369   1.399       .  A
C368        F373   1.357       .  S
C369        C370   1.406       .  A
C369        H374   1.083       .  S
C370        C371   1.405       .  A
C371        C372   1.401       .  A
C371        F375   1.357       .  S
C372        H376   1.083       .  S
C377        C378   1.405       .  A
C377        C382   1.396       .  A
C377        H387   1.083   1_554  S
C378        C383   1.489       .  S
C378        C379   1.412       .  A
C379        C380   1.399       .  A
C379        F384   1.357       .  S
C380        C381   1.400       .  A
C380        H385   1.083       .  S
C381        C382   1.406       .  A
C382        F386   1.358       .  S
C383        C388   1.412   1_554  A
C383        C392   1.400       .  A
C388        C389   1.402       .  A
C388        F393   1.357       .  S
C389        C390   1.405       .  A
C389        H394   1.083       .  S
C390        C391   1.415   1_556  A
C391        C392   1.393       .  A
C391        F395   1.358       .  S
C392        H396   1.083       .  S
C397        C398   1.413       .  A
C397        C402   1.410       .  A
C397        H407   1.082       .  S
C398        C403   1.502       .  S
C398        C399   1.406       .  A
C399        C400   1.395       .  A
C399        F404   1.357       .  S
C400        C401   1.410       .  A
C400        H405   1.083       .  S
C401        C402   1.409       .  A
C402        F406   1.357       .  S
C403        C408   1.409       .  A
C403        C412   1.412       .  A
C408        C409   1.402       .  A
C408        F413   1.357       .  S
C409        C410   1.409       .  A
C409        H414   1.083       .  S
C410        C411   1.406       .  A
C411        C412   1.404       .  A
C411        F415   1.357       .  S
C412        H416   1.082       .  S
C417        C418   1.407       .  A
C417        C422   1.400       .  A
C417        H427   1.083       .  S
C418        C423   1.494       .  S
C418        C419   1.409       .  A
C419        C420   1.402       .  A
C419        F424   1.357       .  S
C420        C421   1.406       .  A
C420        H425   1.083       .  S
C421        C422   1.407       .  A
C422        F426   1.358       .  S
C423        C428   1.409       .  A
C423        C432   1.406       .  A
C428        C429   1.400       .  A
C428        F433   1.357       .  S
C429        C430   1.405       .  A
C429        H434   1.083       .  S
C430        C431   1.411       .  A
C431        C432   1.401       .  A
C431        F435   1.358       .  S
C432        H436   1.083       .  S
C437        C438   1.405       .  A
C437        C442   1.399       .  A
C437        H447   1.083       .  S
C438        C443   1.495   1_655  S
C438        C439   1.411       .  A
C439        C440   1.402       .  A
C439        F444   1.358   1_655  S
C440        C441   1.408       .  A
C440        H445   1.083       .  S
C441        C442   1.411       .  A
C442        F446   1.357       .  S
C443        C448   1.412       .  A
C443        C452   1.405       .  A
C448        C449   1.404       .  A
C448        F453   1.357       .  S
C449        C450   1.404       .  A
C449        H454   1.083       .  S
C450        C451   1.410       .  A
C451        C452   1.397       .  A
C451        F455   1.358       .  S
C452        H456   1.083       .  S
C457        C458   1.402   1_554  A
C457        C462   1.396   1_554  A
C457        H467   1.083       .  S
C458        C463   1.501   1_556  S
C458        C459   1.416       .  A
C459        C460   1.410       .  A
C459        F464   1.357       .  S
C460        C461   1.405       .  A
C460        H465   1.083       .  S
C461        C462   1.413       .  A
C462        F466   1.358   1_556  S
C463        C468   1.415       .  A
C463        C472   1.403   1_554  A
C468        C469   1.407       .  A
C468        F473   1.357       .  S
C469        C470   1.404       .  A
C469        H474   1.083       .  S
C470        C471   1.416       .  A
C471        C472   1.400   1_554  A
C471        F475   1.358   1_554  S
C472        H476   1.083       .  S
C477        C478   1.407       .  A
C477        C482   1.407       .  A
C477        H487   1.083       .  S
C478        C483   1.481       .  S
C478        C479   1.400       .  A
C479        C480   1.391       .  A
C479        F484   1.358       .  S
C480        C481   1.411       .  A
C480        H485   1.083       .  S
C481        C482   1.410       .  A
C482        F486   1.357       .  S
C483        C488   1.405       .  A
C483        C492   1.403       .  A
C488        C489   1.401       .  A
C488        F493   1.357       .  S
C489        C490   1.407       .  A
C489        H494   1.083       .  S
C490        C491   1.410       .  A
C491        C492   1.397       .  A
C491        F495   1.358       .  S
C492        H496   1.084       .  S
C497        C498   1.408       .  A
C497        C502   1.401       .  A
C497        H507   1.083       .  S
C498        C503   1.488       .  S
C498        C499   1.407       .  A
C499        C500   1.397       .  A
C499        F504   1.358       .  S
C500        C501   1.404       .  A
C500        H505   1.084       .  S
C501        C502   1.403       .  A
C502        F506   1.357       .  S
C503        C508   1.404       .  A
C503        C512   1.410       .  A
C508        C509   1.395       .  A
C508        F513   1.358       .  S
C509        C510   1.408       .  A
C509        H514   1.083   1_554  S
C510        C511   1.405       .  A
C511        C512   1.403       .  A
C511        F515   1.357       .  S
C512        H516   1.083       .  S
C517        C518   1.396       .  A
C517        C522   1.385       .  A
C517        H527   1.084   1_655  S
C518        C523   1.476   1_656  S
C518        C519   1.409       .  A
C519        C520   1.403       .  A
C519        F524   1.357       .  S
C520        C521   1.406       .  A
C520        H525   1.083       .  S
C521        C522   1.414       .  A
C522        F526   1.355       .  S
C523        C528   1.408   1_554  A
C523        C532   1.403       .  A
C528        C529   1.393   1_556  A
C528        F533   1.358       .  S
C529        C530   1.401       .  A
C529        H534   1.083       .  S
C530        C531   1.407       .  A
C531        C532   1.396       .  A
C531        F535   1.358       .  S
C532        H536   1.083   1_455  S
C537        C538   1.401       .  A
C537        C542   1.397       .  A
C537        H547   1.083       .  S
C538        C543   1.493       .  S
C538        C539   1.415       .  A
C539        C540   1.408       .  A
C539        F544   1.357       .  S
C540        C541   1.402       .  A
C540        H545   1.083       .  S
C541        C542   1.412       .  A
C542        F546   1.358       .  S
C543        C548   1.413       .  A
C543        C552   1.400       .  A
C548        C549   1.408       .  A
C548        F553   1.357       .  S
C549        C550   1.408       .  A
C549        H554   1.083       .  S
C550        C551   1.416       .  A
C551        C552   1.395       .  A
C551        F555   1.357       .  S
C552        H556   1.083       .  S
C557        C558   1.407       .  A
C557        C562   1.404       .  A
C557        H567   1.083       .  S
C558        C563   1.498       .  S
C558        C559   1.411       .  A
C559        C560   1.400       .  A
C559        F564   1.357       .  S
C560        C561   1.406       .  A
C560        H565   1.083       .  S
C561        C562   1.410       .  A
C562        F566   1.357       .  S
C563        C568   1.414       .  A
C563        C572   1.403       .  A
C568        C569   1.408       .  A
C568        F573   1.357       .  S
C569        C570   1.405       .  A
C569        H574   1.083       .  S
C570        C571   1.413       .  A
C571        C572   1.396       .  A
C571        F575   1.358       .  S
C572        H576   1.083       .  S
C577        C578   1.406       .  A
C577        C582   1.402       .  A
C577        H587   1.083       .  S
C578        C583   1.475       .  S
C578        C579   1.400       .  A
C579        C580   1.389       .  A
C579        F584   1.358       .  S
C580        C581   1.409       .  A
C580        H585   1.083       .  S
C581        C582   1.409       .  A
C582        F586   1.357       .  S
C583        C588   1.404       .  A
C583        C592   1.402       .  A
C588        C589   1.392       .  A
C588        F593   1.358       .  S
C589        C590   1.406       .  A
C589        H594   1.083       .  S
C590        C591   1.410       .  A
C591        C592   1.400       .  A
C591        F595   1.357       .  S
C592        H596   1.083       .  S
C597        C598   1.409       .  A
C597        C602   1.405       .  A
C597        H607   1.083       .  S
C598        C603   1.486       .  S
C598        C599   1.405       .  A
C599        C600   1.392       .  A
C599        F604   1.358       .  S
C600        C601   1.405       .  A
C600        H605   1.083       .  S
C601        C602   1.408       .  A
C602        F606   1.357       .  S
C603        C608   1.406       .  A
C603        C612   1.404       .  A
C608        C609   1.401       .  A
C608        F613   1.357       .  S
C609        C610   1.409       .  A
C609        H614   1.083       .  S
C610        C611   1.410       .  A
C611        C612   1.396       .  A
C611        F615   1.357       .  S
C612        H616   1.083       .  S
C617        C618   1.408       .  A
C617        C622   1.402       .  A
C617        H627   1.082   1_455  S
C618        C623   1.497   1_455  S
C618        C619   1.410       .  A
C619        C620   1.400       .  A
C619        F624   1.357       .  S
C620        C621   1.406       .  A
C620        H625   1.083       .  S
C621        C622   1.411       .  A
C622        F626   1.358       .  S
C623        C628   1.411       .  A
C623        C632   1.408       .  A
C628        C629   1.403       .  A
C628        F633   1.357       .  S
C629        C630   1.406       .  A
C629        H634   1.083       .  S
C630        C631   1.404       .  A
C631        C632   1.398       .  A
C631        F635   1.355       .  S
C632        H636   1.082   1_655  S
C637        C638   1.399       .  A
C637        C642   1.393       .  A
C637        H647   1.082   1_655  S
C638        C643   1.466   1_655  S
C638        C639   1.405       .  A
C639        C640   1.391       .  A
C639        F644   1.358       .  S
C640        C641   1.402       .  A
C640        H645   1.082       .  S
C641        C642   1.411       .  A
C642        F646   1.358       .  S
C643        C648   1.409       .  A
C643        C652   1.396       .  A
C648        C649   1.399       .  A
C648        F653   1.357       .  S
C649        C650   1.400       .  A
C649        H654   1.083       .  S
C650        C651   1.406       .  A
C651        C652   1.384       .  A
C651        F655   1.359       .  S
C652        H656   1.083       .  S
