geometry optimzed in LAMMPS
_audit_creation_date              2020-12-01 
_audit_creation_method            'lammps2cif' 
_symmetry_space_group_name_H-M    'P1' 
_symmetry_Int_Tables_number       1 
_symmetry_cell_setting            triclinic 
loop_ 
_symmetry_equiv_pos_as_xyz 
  x,y,z 
_cell_length_a                    30.33349821 
_cell_length_b                    58.06375762031241 
_cell_length_c                    29.431101552765643 
_cell_angle_alpha                 89.93364105695072 
_cell_angle_beta                  90.2047508920522 
_cell_angle_gamma                 90.4774256662588 
loop_ 
_atom_site_label 
_atom_site_type_symbol 
_atom_site_fract_x 
_atom_site_fract_y 
_atom_site_fract_z 
_atom_site_charge 
Zr1        Zr  0.14848924  0.85011045  0.43530296     2.17500
O2          O  0.08791554  0.83924395  0.38477860    -0.51800
O3          O  0.13765230  0.80862925  0.44471464    -0.75000
O4          O  0.17250103  0.84966531  0.35523709    -0.81700
O5          O  0.07542250  0.87329430  0.53264174    -0.83500
O6          O  0.24170547  0.83943124  0.36846175    -0.79100
O7          O  0.07466317  0.86388895  0.45749344    -0.90700
O8          O  0.18786166  0.79428202  0.49400467    -0.76700
O9          O  0.22268496  0.83674563  0.44139032    -0.86200
O10         O  0.15961863  0.84032724  0.51369784    -0.85900
O11         O  0.19545735  0.88166032  0.40967561    -0.72600
O12         O  0.13883234  0.88434448  0.47921349    -0.84800
Zr13       Zr  0.27010125  0.89440805  0.53703893     2.26400
Zr14       Zr  0.26980969  0.86841017  0.41946067     2.06300
Zr15       Zr  0.15202236  0.87492936  0.55748962     2.10000
Zr16       Zr  0.23345174  0.82699866  0.51873462     1.78800
O17         O  0.11760723  0.90748778  0.59522905    -0.93600
O18         O  0.28625024  0.80171123  0.48204880    -0.41400
O19         O  0.22589322  0.86201125  0.56082941    -0.78000
O20         O  0.28188897  0.85831606  0.49740945    -0.96700
O21         O  0.25903135  0.90384158  0.45921090    -0.90000
O22         O  0.19560054  0.90696871  0.53245532    -0.92900
C23         C  0.15447902  0.79189834  0.46728973     1.00900
C24         C  0.05535790  0.87020109  0.49452535     1.13800
C25         C  0.21129980  0.84489257  0.34080061     1.04600
O26         O  0.32528806  0.85161917  0.37026405    -0.95000
O27         O  0.34661278  0.87418342  0.44121559    -0.90800
O28         O  0.34592168  0.89079827  0.51062757    -0.83900
C29         C  0.36631151  0.88271928  0.47607277     1.11200
O30         O  0.13133475  0.92290380  0.39255546    -0.97000
Zr31       Zr  0.18383773  0.91544511  0.45358112     1.88900
O32         O  0.26395409  0.93684332  0.53940803    -0.73600
O33         O  0.27518955  0.89764758  0.36029366    -0.52900
O34         O  0.21478398  0.93784913  0.39113556    -0.97600
O35         O  0.12066790  0.93771385  0.47867240    -0.54800
O36         O  0.21632758  0.94929970  0.48525699    -0.74200
C37         C  0.24328823  0.95282244  0.51781539     0.98200
O38         O  0.32581218  0.90956054  0.58944834    -0.63000
O39         O  0.11593699  0.84851240  0.61016560    -0.57800
O40         O  0.26233038  0.88677641  0.61780235    -0.94500
O41         O  0.19158245  0.87574748  0.63113344    -0.92900
O42         O  0.20919509  0.80919071  0.58943285    -0.93200
O43         O  0.29232545  0.81570610  0.57049286    -0.92000
C44         C  0.23132797  0.88030491  0.64456055     1.17000
H45         H  0.13861164  0.82890295  0.52400882     0.33000
H46         H  0.31099504  0.85232270  0.50270763     0.43800
H47         H  0.18975501  0.91996940  0.55187221     0.37400
H48         H  0.19030015  0.88640913  0.37868515     0.33800
H49         H  0.27716759  0.78595870  0.49118604     0.25600
H50         H  0.30336889  0.90574286  0.36674565     0.31600
H51         H  0.24617991  0.94026032  0.39926158     0.37500
H52         H  0.21227002  0.79241334  0.58439307     0.31900
H53         H  0.09603657  0.85836222  0.62815448     0.30800
H54         H  0.12471587  0.90554390  0.62786797     0.32500
H55         H  0.12629199  0.94074223  0.51127214     0.31500
H56         H  0.31074283  0.82973955  0.57429885     0.35500
H57         H  0.34638476  0.89679908  0.59578536     0.28200
H58         H  0.09911043  0.82635853  0.36613616     0.32400
H59         H  0.11695413  0.90782322  0.38669171     0.35300
H60         H  0.09601786  0.83891683  0.59124006     0.27900
H61         H  0.34329966  0.92109733  0.57222287     0.40800
H62         H  0.33309987  0.83686917  0.38505787     0.30800
H63         H  0.27922620  0.80251941  0.44920805     0.38400
H64         H  0.09561400  0.92666964  0.47847671     0.30300
H65         H  0.28086455  0.88893569  0.33206264     0.30300
H66         H  0.08492757  0.85226867  0.36331491     0.30600
Zr67       Zr  0.65313706  0.86370385  0.42614070     2.17500
O68         O  0.59243248  0.86352397  0.37155443    -0.51800
O69         O  0.64213561  0.82276221  0.41227635    -0.75000
O70         O  0.67956526  0.87200461  0.34884331    -0.81700
O71         O  0.57621515  0.87111733  0.53011293    -0.83500
O72         O  0.74972473  0.86278824  0.36003361    -0.79100
O73         O  0.57835213  0.87105780  0.45303260    -0.90700
O74         O  0.69355688  0.80268584  0.45155822    -0.76700
O75         O  0.72789164  0.85124506  0.42619131    -0.86200
O76         O  0.66308192  0.84300948  0.49581498    -0.85900
O77         O  0.69727980  0.89842367  0.41956593    -0.72600
O78         O  0.64041641  0.88997755  0.48713439    -0.84800
Zr79       Zr  0.76961519  0.89433954  0.55013582     2.26400
Zr80       Zr  0.77239634  0.88575172  0.42375512     2.06300
Zr81       Zr  0.65261359  0.86954725  0.55690326     2.10000
Zr82       Zr  0.73747293  0.83094262  0.49527777     1.78800
O83         O  0.60858084  0.89025339  0.61214290    -0.93600
O84         O  0.79176997  0.81183474  0.44786320    -0.41400
O85         O  0.72822951  0.85845449  0.55593416    -0.78000
O86         O  0.78301552  0.86511323  0.49315019    -0.96700
O87         O  0.75885497  0.91421941  0.48060667    -0.90000
O88         O  0.69376751  0.90464295  0.55109263    -0.92900
C89         C  0.65970498  0.80379757  0.42506095     1.00900
C90         C  0.55731090  0.87230429  0.49092683     1.13800
C91         C  0.71877378  0.86913706  0.33370651     1.04600
O92         O  0.83165330  0.88022816  0.36926908    -0.95000
O93         O  0.84875581  0.88836900  0.44939487    -0.90800
O94         O  0.84693314  0.89388113  0.52558214    -0.83900
C95         C  0.86785768  0.89093240  0.48806209     1.11200
O96         O  0.63721613  0.94016470  0.41964203    -0.97000
Zr97       Zr  0.68275793  0.92440897  0.48049758     1.88900
O98         O  0.75930824  0.93492245  0.57726145    -0.73600
O99         O  0.77368639  0.92183021  0.38148080    -0.52900
O100        O  0.72344715  0.95551716  0.44326724    -0.97600
O101        O  0.61177900  0.93998527  0.50290890    -0.54800
O102        O  0.70098972  0.95060809  0.54044817    -0.74200
C103        C  0.73117485  0.95132689  0.57073407     0.98200
O104        O  0.83572093  0.90034111  0.59644937    -0.63000
O105        O  0.62449399  0.83250191  0.58374680    -0.57800
O106        O  0.75765013  0.88012990  0.62587424    -0.94500
O107        O  0.68741851  0.86685540  0.63283473    -0.92900
O108        O  0.71117787  0.80353009  0.55191233    -0.93200
O109        O  0.79750961  0.81352582  0.53799342    -0.92000
C110        C  0.72610008  0.87148413  0.64910128     1.17000
H111        H  0.64253727  0.83029769  0.49863650     0.33000
H112        H  0.81223209  0.85884476  0.49574467     0.43800
H113        H  0.68601250  0.91354762  0.57749087     0.37400
H114        H  0.69178072  0.90652594  0.39146665     0.33800
H115        H  0.78498286  0.79518936  0.45094989     0.25600
H116        H  0.80285380  0.92873979  0.38856799     0.31600
H117        H  0.74013930  0.96353393  0.46759600     0.37500
H118        H  0.71570303  0.81138889  0.58140804     0.31900
H119        H  0.64145036  0.82918771  0.61177231     0.30800
H120        H  0.59955300  0.90450538  0.59626691     0.32500
H121        H  0.61733386  0.95660955  0.50803989     0.31500
H122        H  0.80613910  0.82536864  0.56059372     0.35500
H123        H  0.82899204  0.91347944  0.61652910     0.28200
H124        H  0.60165586  0.85318990  0.34666685     0.32400
H125        H  0.63960785  0.95711887  0.42250361     0.35300
H126        H  0.59433867  0.83578689  0.59450908     0.27900
H127        H  0.83823780  0.88687686  0.61695463     0.40800
H128        H  0.83923200  0.86370090  0.37165898     0.30800
H129        H  0.78319891  0.81560886  0.41625290     0.38400
H130        H  0.60645482  0.93353816  0.53354816     0.30300
H131        H  0.77572899  0.91715417  0.34921442     0.30300
H132        H  0.59252395  0.87914290  0.35802621     0.30600
Zr133      Zr  0.21502810  0.10622094  0.54017116     2.17500
O134        O  0.15379131  0.09237833  0.49319390    -0.51800
O135        O  0.22359208  0.06404306  0.54339713    -0.75000
O136        O  0.23661426  0.10211765  0.46223362    -0.81700
O137        O  0.13169763  0.13870847  0.61268396    -0.83500
O138        O  0.31014896  0.10806447  0.45568787    -0.79100
O139        O  0.13729164  0.11407588  0.55313683    -0.90700
O140        O  0.26251636  0.05334010  0.60567436    -0.76700
O141        O  0.28558702  0.09222355  0.56001861    -0.86200
O142        O  0.21378435  0.10176447  0.62037176    -0.85900
O143        O  0.26406910  0.13643674  0.51342407    -0.72600
O144        O  0.20267270  0.14445706  0.56852672    -0.84800
Zr145      Zr  0.32827637  0.15343449  0.64575051     2.26400
Zr146      Zr  0.33491507  0.12105263  0.53182209     2.06300
Zr147      Zr  0.20332514  0.13997517  0.64842251     2.10000
Zr148      Zr  0.28533546  0.08865537  0.64089299     1.78800
O149        O  0.15664815  0.17248894  0.66752229    -0.93600
O150        O  0.34684189  0.06193588  0.64380345    -0.41400
O151        O  0.27397994  0.12601598  0.67130310    -0.78000
O152        O  0.33873754  0.11556156  0.61332934    -0.96700
O153        O  0.32610504  0.15850998  0.56509443    -0.90000
O154        O  0.25723310  0.16854985  0.62768106    -0.92900
C155        C  0.24186248  0.04877353  0.56888969     1.00900
C156        C  0.11528046  0.12728617  0.57944497     1.13800
C157        C  0.27191610  0.10312592  0.43868636     1.04600
O158        O  0.37471530  0.08578937  0.51564226    -0.95000
O159        O  0.40909827  0.12907192  0.55780918    -0.90800
O160        O  0.40600189  0.14401489  0.62931076    -0.83900
C161        C  0.42721217  0.13628947  0.59464029     1.11200
O162        O  0.19655191  0.18507975  0.49640525    -0.97000
Zr163      Zr  0.25539095  0.17345418  0.54777159     1.88900
O164        O  0.34704255  0.19354518  0.62702146    -0.73600
O165        O  0.37607198  0.14369096  0.47637184    -0.52900
O166        O  0.28298153  0.18511275  0.47352718    -0.97600
O167        O  0.20805877  0.20439436  0.57431096    -0.54800
O168        O  0.30622885  0.20448943  0.56600833    -0.74200
C169        C  0.33586801  0.20818588  0.59631574     0.98200
O170        O  0.37732737  0.16143817  0.70979843    -0.63000
O171        O  0.16257579  0.11501505  0.70027319    -0.57800
O172        O  0.29750104  0.15998076  0.72316081    -0.94500
O173        O  0.22363017  0.15381523  0.72143785    -0.92900
O174        O  0.23666778  0.07093541  0.69679949    -0.93200
O175        O  0.32454792  0.08895620  0.71327716    -0.92000
C176        C  0.25898924  0.15934956  0.74225296     1.17000
H177        H  0.19065081  0.09121744  0.62959132     0.33000
H178        H  0.36634390  0.10870692  0.62206495     0.43800
H179        H  0.25257690  0.18283158  0.64364511     0.37400
H180        H  0.26085205  0.13985218  0.48154715     0.33800
H181        H  0.33505472  0.04808509  0.65947118     0.25600
H182        H  0.39567145  0.13247828  0.46140154     0.31600
H183        H  0.31465159  0.18850506  0.47850517     0.37500
H184        H  0.25327328  0.05752003  0.70837780     0.31900
H185        H  0.18469014  0.11003060  0.72298085     0.30800
H186        H  0.17709915  0.18505862  0.67650196     0.32500
H187        H  0.22583877  0.21333552  0.59653448     0.31500
H188        H  0.34635008  0.10168154  0.71049085     0.35500
H189        H  0.39252011  0.14675890  0.71625393     0.28200
H190        H  0.16395679  0.07776747  0.47959097     0.32400
H191        H  0.18718043  0.17064323  0.48120096     0.35300
H192        H  0.14300100  0.12551340  0.71715952     0.27900
H193        H  0.40055285  0.17188466  0.69786402     0.40800
H194        H  0.38266566  0.07960704  0.54591714     0.30800
H195        H  0.35113366  0.05696648  0.61198588     0.38400
H196        H  0.18514136  0.19660718  0.59272452     0.30300
H197        H  0.35426500  0.14786734  0.45273282     0.30300
H198        H  0.15171533  0.10324019  0.46732199     0.30600
Zr199      Zr  0.82710505  0.15213513  0.52815226     2.17500
O200        O  0.88214191  0.15353006  0.46798852    -0.51800
O201        O  0.84174024  0.19264388  0.54109750    -0.75000
O202        O  0.79464096  0.16235509  0.45290186    -0.81700
O203        O  0.91063273  0.12484326  0.61070699    -0.83500
O204        O  0.72092722  0.15656004  0.45844042    -0.79100
O205        O  0.90491195  0.14423256  0.54348943    -0.90700
O206        O  0.80029475  0.20491776  0.59989165    -0.76700
O207        O  0.75571553  0.16595012  0.54625531    -0.86200
O208        O  0.82696789  0.15836088  0.60888195    -0.85900
O209        O  0.77712310  0.12216633  0.50455683    -0.72600
O210        O  0.84124637  0.11605573  0.56487090    -0.84800
Zr211      Zr  0.71744485  0.10409828  0.63843958     2.26400
Zr212      Zr  0.70583164  0.13542679  0.52637108     2.06300
Zr213      Zr  0.83868314  0.12198925  0.64546242     2.10000
Zr214      Zr  0.75537957  0.17204443  0.62587079     1.78800
O215        O  0.88047983  0.08855151  0.67019972    -0.93600
O216        O  0.69907663  0.19850281  0.59869898    -0.41400
O217        O  0.76639577  0.13514879  0.66119928    -0.78000
O218        O  0.70366149  0.14193991  0.60623278    -0.96700
O219        O  0.71895913  0.09825019  0.55844689    -0.90000
O220        O  0.79043391  0.09160316  0.62198326    -0.92900
C221        C  0.82956808  0.20829568  0.56896935     1.00900
C222        C  0.92705986  0.13372883  0.57452348     1.13800
C223        C  0.75508387  0.16286803  0.43629983     1.04600
O224        O  0.65159095  0.16538616  0.51280996    -0.95000
O225        O  0.63311624  0.12522992  0.55226681    -0.90800
O226        O  0.63822116  0.11138247  0.62400183    -0.83900
C227        C  0.61565331  0.11891998  0.58988517     1.11200
O228        O  0.83459722  0.08070380  0.47219668    -0.97000
Zr229      Zr  0.79210573  0.08638433  0.54127051     1.88900
O230        O  0.72128762  0.06105304  0.63268134    -0.73600
O231        O  0.67903242  0.11146427  0.46406872    -0.52900
O232        O  0.74734468  0.06691308  0.48390599    -0.97600
O233        O  0.85903596  0.06402023  0.54978371    -0.54800
O234        O  0.76944766  0.05141121  0.57715285    -0.74200
C235        C  0.74333579  0.04613543  0.60943434     0.98200
O236        O  0.66678699  0.08631454  0.69256187    -0.63000
O237        O  0.88216519  0.14762733  0.69377153    -0.57800
O238        O  0.73892144  0.10972468  0.71765647    -0.94500
O239        O  0.81293535  0.11480631  0.72373005    -0.92900
O240        O  0.78595373  0.18818822  0.69573155    -0.93200
O241        O  0.70518601  0.18110810  0.68767064    -0.92000
C242        C  0.77429411  0.11221874  0.74128442     1.17000
H243        H  0.84975810  0.16909679  0.61813145     0.33000
H244        H  0.67545307  0.14794270  0.61518824     0.43800
H245        H  0.79853141  0.07797981  0.63880074     0.37400
H246        H  0.77837662  0.11985416  0.47209865     0.33800
H247        H  0.70339818  0.21258843  0.61716697     0.25600
H248        H  0.66209378  0.09892866  0.47890997     0.31600
H249        H  0.72165710  0.06057150  0.50056664     0.37500
H250        H  0.80911496  0.19924198  0.68608732     0.31900
H251        H  0.86061204  0.15451278  0.71484748     0.30800
H252        H  0.88791812  0.09163318  0.70241008     0.32500
H253        H  0.85042612  0.04801755  0.54197416     0.31500
H254        H  0.67553554  0.17646836  0.67667084     0.35500
H255        H  0.68465444  0.07547298  0.71086696     0.28200
H256        H  0.88079705  0.16934666  0.45552315     0.32400
H257        H  0.85468379  0.09422689  0.47080261     0.35300
H258        H  0.89996965  0.13721707  0.71302631     0.27900
H259        H  0.65862713  0.09867658  0.71399420     0.40800
H260        H  0.63423035  0.15996349  0.48628016     0.30800
H261        H  0.70867643  0.20305575  0.56783858     0.38400
H262        H  0.86416969  0.06373789  0.58299491     0.30300
H263        H  0.65639394  0.12090862  0.44867144     0.30300
H264        H  0.87062473  0.14344042  0.44350218     0.30600
Zr265      Zr  0.21711072  0.88615222  0.05771929     2.17500
O266        O  0.15272077  0.88813410  0.10710569    -0.51800
O267        O  0.22478003  0.92693441  0.08331225    -0.75000
O268        O  0.23386630  0.87640903  0.13555207    -0.81700
O269        O  0.13879774  0.87446872  0.95851055    -0.83500
O270        O  0.30515771  0.86526290  0.14220292    -0.79100
O271        O  0.13974782  0.88217907  0.03390630    -0.90700
O272        O  0.28439100  0.94215059  0.04788598    -0.76700
O273        O  0.29147353  0.89939004  0.05607775    -0.86200
O274        O  0.22430693  0.90523116  0.98630034    -0.85900
O275        O  0.26093834  0.85146590  0.06455145    -0.72600
O276        O  0.20435293  0.85661899  0.00157468    -0.84800
Zr277      Zr  0.33368759  0.85741247  0.93417491     2.26400
Zr278      Zr  0.33538918  0.86554768  0.06418659     2.06300
Zr279      Zr  0.21317664  0.87565509  0.93059943     2.10000
Zr280      Zr  0.29912366  0.91800841  0.98409901     1.78800
O281        O  0.15690055  0.85575993  0.88584821    -0.93600
O282        O  0.36679921  0.93971339  0.99874638    -0.41400
O283        O  0.28683128  0.89029286  0.92542572    -0.78000
O284        O  0.34559289  0.88565873  0.99302612    -0.96700
O285        O  0.32502173  0.83755376  0.00502601    -0.90000
O286        O  0.26007084  0.84270908  0.93480246    -0.92900
C287        C  0.25417961  0.94297359  0.07784811     1.00900
C288        C  0.11944785  0.87737298  0.99655682     1.13800
C289        C  0.26678504  0.86949481  0.15899459     1.04600
O290        O  0.38150099  0.88985268  0.11250018    -0.95000
O291        O  0.41149326  0.86310722  0.03862966    -0.90800
O292        O  0.40995356  0.85777945  0.96217939    -0.83900
C293        C  0.43076017  0.86066382  0.00011741     1.11200
O294        O  0.19504465  0.80575194  0.05301801    -0.97000
Zr295      Zr  0.25119183  0.82358072  0.00530139     1.88900
O296        O  0.34148232  0.81667474  0.91694185    -0.73600
O297        O  0.36425829  0.83026857  0.09732807    -0.52900
O298        O  0.27811141  0.79574671  0.06058895    -0.97600
O299        O  0.19330222  0.80438079  0.96154500    -0.54800
O300        O  0.29376070  0.79625610  0.96062602    -0.74200
C301        C  0.32434827  0.79759812  0.93059954     0.98200
O302        O  0.39546950  0.86463009  0.88314161    -0.63000
O303        O  0.19180104  0.91036859  0.88984734    -0.57800
O304        O  0.30974246  0.86373608  0.85440054    -0.94500
O305        O  0.23508068  0.86632464  0.85492595    -0.92900
O306        O  0.25572938  0.94884671  0.95060299    -0.93200
O307        O  0.34288430  0.93235009  0.92066972    -0.92000
C308        C  0.27187188  0.86492992  0.83433917     1.17000
H309        H  0.20340127  0.91761034  0.98362813     0.33000
H310        H  0.37461065  0.89244869  0.99107111     0.43800
H311        H  0.25477882  0.83231562  0.90973259     0.37400
H312        H  0.25426058  0.84282243  0.09169880     0.33800
H313        H  0.35720445  0.95554332  0.00613521     0.25600
H314        H  0.38973380  0.83538876  0.11598852     0.31600
H315        H  0.31054996  0.79613074  0.05722094     0.37500
H316        H  0.27698833  0.96166298  0.94595515     0.31900
H317        H  0.16903662  0.91763009  0.90893935     0.30800
H318        H  0.14797632  0.86694127  0.86215076     0.32500
H319        H  0.20764222  0.79938252  0.93310231     0.31500
H320        H  0.35925212  0.91876148  0.90970189     0.35500
H321        H  0.39277764  0.85292296  0.85884664     0.28200
H322        H  0.16024154  0.89960436  0.13079077     0.32400
H323        H  0.17062358  0.81696765  0.05331663     0.35300
H324        H  0.21773839  0.92077282  0.89190600     0.27900
H325        H  0.38912586  0.87951544  0.86812755     0.40800
H326        H  0.37254274  0.90575775  0.10501042     0.30800
H327        H  0.37812227  0.93343166  0.02772204     0.38400
H328        H  0.17340575  0.81693126  0.95200051     0.30300
H329        H  0.34184449  0.82530114  0.11973476     0.30300
H330        H  0.15110851  0.87317597  0.12333088     0.30600
Zr331      Zr  0.71880520  0.89331814  0.03944794     2.17500
O332        O  0.65786234  0.90748136  0.08540754    -0.51800
O333        O  0.72776495  0.93601152  0.04192876    -0.75000
O334        O  0.73531378  0.89104958  0.12034683    -0.81700
O335        O  0.63955818  0.86880919  0.94980181    -0.83500
O336        O  0.80682303  0.88130688  0.13054095    -0.79100
O337        O  0.64165280  0.88483211  0.01994251    -0.90700
O338        O  0.77870730  0.94777753  0.99053799    -0.76700
O339        O  0.79319671  0.90545450  0.03058153    -0.86200
O340        O  0.72645889  0.90239910  0.96071138    -0.85900
O341        O  0.76125913  0.85996612  0.06229436    -0.72600
O342        O  0.70453156  0.85782049  0.99891220    -0.84800
Zr343      Zr  0.83431412  0.84847776  0.93357061     2.26400
Zr344      Zr  0.83580655  0.87308077  0.05468320     2.06300
Zr345      Zr  0.71386879  0.86692729  0.92079391     2.10000
Zr346      Zr  0.80156057  0.91390823  0.95148230     1.78800
O347        O  0.65617145  0.84681400  0.87838293    -0.93600
O348        O  0.86864605  0.93574427  0.96822774    -0.41400
O349        O  0.78811359  0.87961818  0.90908539    -0.78000
O350        O  0.84750202  0.88334865  0.97621872    -0.96700
O351        O  0.82393612  0.83866398  0.01151359    -0.90000
O352        O  0.75997659  0.83497591  0.94141859    -0.92900
C353        C  0.75151147  0.95174412  0.02244213     1.00900
C354        C  0.62074767  0.87586758  0.98606037     1.13800
C355        C  0.76843683  0.88637782  0.14595337     1.04600
O356        O  0.88052466  0.90370556  0.08810757    -0.95000
O357        O  0.91131000  0.86560940  0.03399152    -0.90800
O358        O  0.91106379  0.85339167  0.96046151    -0.83900
C359        C  0.93098096  0.85942659  0.99756639     1.11200
O360        O  0.69076480  0.81651301  0.07199589    -0.97000
Zr361      Zr  0.74994558  0.82567517  0.01889502     1.88900
O362        O  0.83965472  0.80649797  0.93860155    -0.73600
O363        O  0.86563394  0.84318044  0.10385783    -0.52900
O364        O  0.77861293  0.80721293  0.08713605    -0.97600
O365        O  0.69249641  0.80126258  0.98579555    -0.54800
O366        O  0.79341412  0.79301044  0.99282996    -0.74200
C367        C  0.82391667  0.79005016  0.96323734     0.98200
O368        O  0.89373842  0.84218734  0.87949065    -0.63000
O369        O  0.70053542  0.89800736  0.86685509    -0.57800
O370        O  0.80911397  0.85287784  0.85369886    -0.94500
O371        O  0.73710713  0.84398681  0.85761424    -0.92900
O372        O  0.76565540  0.93727701  0.89345650    -0.93200
O373        O  0.84763789  0.91883483  0.88452438    -0.92000
C374        C  0.77151182  0.84858761  0.83473811     1.17000
H375        H  0.70609002  0.91427366  0.95165809     0.33000
H376        H  0.87666729  0.88961266  0.97155336     0.43800
H377        H  0.75451906  0.82140330  0.92326706     0.37400
H378        H  0.75455976  0.85441843  0.09236757     0.33800
H379        H  0.86402647  0.95099059  0.95396145     0.25600
H380        H  0.83972401  0.83693292  0.12018866     0.31600
H381        H  0.77339656  0.79053192  0.08252208     0.37500
H382        H  0.74556893  0.94767597  0.90993985     0.31900
H383        H  0.71501001  0.89298137  0.83846266     0.30800
H384        H  0.65394099  0.85500312  0.84894072     0.32500
H385        H  0.70790358  0.79124265  0.96393773     0.31500
H386        H  0.86542847  0.90462008  0.88315775     0.35500
H387        H  0.88233176  0.83060624  0.85767906     0.28200
H388        H  0.67035997  0.92021796  0.10391232     0.32400
H389        H  0.69158348  0.79961124  0.07618400     0.35300
H390        H  0.66859617  0.89708070  0.86006441     0.27900
H391        H  0.89609027  0.85668996  0.86182813     0.40800
H392        H  0.90096724  0.89566190  0.10898217     0.30800
H393        H  0.86741899  0.93874845  0.00131039     0.38400
H394        H  0.67490599  0.81180919  0.96659112     0.30300
H395        H  0.87449589  0.83056278  0.08326251     0.30300
H396        H  0.65122309  0.89511499  0.10761870     0.30600
Zr397      Zr  0.28924059  0.09452237  0.13752511     2.17500
O398        O  0.35116719  0.07887589  0.18059790    -0.51800
O399        O  0.27898473  0.05162859  0.13279329    -0.75000
O400        O  0.27357874  0.09378161  0.21821691    -0.81700
O401        O  0.36870091  0.12081656  0.05361618    -0.83500
O402        O  0.20314737  0.10522394  0.22750632    -0.79100
O403        O  0.36701479  0.10257211  0.12161471    -0.90700
O404        O  0.21559533  0.04405471  0.09474897    -0.76700
O405        O  0.21420774  0.08379818  0.12778268    -0.86200
O406        O  0.28061465  0.08658978  0.05860223    -0.85900
O407        O  0.24893527  0.12841156  0.16207577    -0.72600
O408        O  0.30383505  0.13088353  0.09996131    -0.84800
Zr409      Zr  0.17608427  0.14321873  0.03329088     2.26400
Zr410      Zr  0.17386631  0.11637112  0.15303576     2.06300
Zr411      Zr  0.29527682  0.12241321  0.02150105     2.10000
Zr412      Zr  0.20451020  0.07702170  0.04831511     1.78800
O413        O  0.35987323  0.13834462  0.98370355    -0.93600
O414        O  0.13212105  0.05888759  0.05607378    -0.41400
O415        O  0.22028130  0.11166737  0.00754367    -0.78000
O416        O  0.16123586  0.10813359  0.07385758    -0.96700
O417        O  0.18594551  0.15149444  0.11202849    -0.90000
O418        O  0.25130638  0.15504095  0.04242840    -0.92900
C419        C  0.24810551  0.03769398  0.11898885     1.00900
C420        C  0.38764236  0.11273531  0.08916467     1.13800
C421        C  0.24039349  0.09830491  0.24335836     1.04600
O422        O  0.12807980  0.08441753  0.17908657    -0.95000
O423        O  0.09947569  0.12602611  0.13197351    -0.90800
O424        O  0.09899767  0.14175100  0.06113065    -0.83900
C425        C  0.07935396  0.13462965  0.09765356     1.11200
O426        O  0.31604664  0.17415242  0.17657898    -0.97000
Zr427      Zr  0.25991061  0.16377347  0.12051462     1.88900
O428        O  0.16644435  0.18422460  0.04370752    -0.73600
O429        O  0.14386130  0.14343521  0.20783721    -0.52900
O430        O  0.22729278  0.18213526  0.18668303    -0.97600
O431        O  0.31907192  0.18774043  0.08971178    -0.54800
O432        O  0.21682301  0.19739681  0.09462286    -0.74200
C433        C  0.18423374  0.20050585  0.06696820     0.98200
O434        O  0.11916777  0.14001641  0.97487571    -0.63000
O435        O  0.30746947  0.09059320  0.96917910    -0.48200
O436        O  0.20503417  0.15361807  0.95717226    -0.94500
O437        O  0.27739903  0.14402327  0.95446285    -0.92900
O438        O  0.24407193  0.05055421  0.99925455    -0.93200
O439        O  0.16472715  0.07101489  0.97724339    -0.92000
C440        C  0.24276605  0.15271714  0.93681520     1.17000
H441        H  0.30018744  0.07444262  0.04933774     0.33000
H442        H  0.13130943  0.10308242  0.06860235     0.43800
H443        H  0.25812871  0.16851160  0.02444938     0.37400
H444        H  0.25602354  0.13267210  0.19288742     0.33800
H445        H  0.13700328  0.04236139  0.04982481     0.25600
H446        H  0.16908841  0.14786617  0.22741100     0.31600
H447        H  0.23507682  0.17222663  0.21282604     0.37500
H448        H  0.22818544  0.03567098  0.00244946     0.31900
H449        H  0.30403651  0.09743347  0.93854172     0.30800
H450        H  0.36733745  0.12711563  0.95967356     0.32500
H451        H  0.30516317  0.19687594  0.06522688     0.31500
H452        H  0.15019118  0.08591180  0.97106461     0.35500
H453        H  0.11830328  0.15529714  0.95997704     0.28200
H454        H  0.34017264  0.06422493  0.19371450     0.32400
H455        H  0.31363463  0.19104199  0.18048736     0.35300
H456        H  0.33933160  0.08722305  0.97180934     0.27900
H457        H  0.13135566  0.12952502  0.95164878     0.40800
H458        H  0.11021206  0.09098220  0.20390075     0.30800
H459        H  0.12571978  0.05954460  0.08901717     0.38400
H460        H  0.33846084  0.17681563  0.07365230     0.30300
H461        H  0.13730814  0.15752268  0.19008540     0.30300
H462        H  0.35542427  0.08914861  0.20711207     0.30600
Zr463      Zr  0.67035998  0.15507033  0.14001194     2.17500
O464        O  0.60754889  0.16527000  0.18718279    -0.51800
O465        O  0.65646655  0.19523679  0.11899926    -0.75000
O466        O  0.69384172  0.16358992  0.21948797    -0.81700
O467        O  0.59783679  0.12352356  0.05204496    -0.83500
O468        O  0.76779472  0.15829233  0.22586528    -0.79100
O469        O  0.59549215  0.14055830  0.12131639    -0.90700
O470        O  0.70743406  0.20681512  0.06728438    -0.76700
O471        O  0.74406642  0.16895812  0.13011246    -0.86200
O472        O  0.67996091  0.16038904  0.05977834    -0.85900
O473        O  0.71801565  0.12583560  0.17145457    -0.72600
O474        O  0.66085562  0.11833952  0.10404720    -0.84800
Zr475      Zr  0.79099989  0.10615157  0.04693268     2.26400
Zr476      Zr  0.79192997  0.13925047  0.15791771     2.06300
Zr477      Zr  0.67253547  0.12359438  0.02422947     2.10000
Zr478      Zr  0.75340704  0.17381256  0.05050429     1.78800
O479        O  0.63077672  0.09308909  0.98650925    -0.93600
O480        O  0.80449162  0.20278081  0.08009660    -0.41400
O481        O  0.74634366  0.13657990  0.01555979    -0.78000
O482        O  0.80172907  0.14450613  0.07811364    -0.96700
O483        O  0.78126483  0.10140638  0.12678435    -0.90000
O484        O  0.71643778  0.09371953  0.05554546    -0.92900
C485        C  0.67353372  0.21034840  0.09220872     1.00900
C486        C  0.57685147  0.13030231  0.08722753     1.13800
C487        C  0.73048987  0.16412210  0.24220217     1.04600
O488        O  0.84321408  0.16973182  0.18029622    -0.95000
O489        O  0.86846632  0.13284494  0.13788901    -0.90800
O490        O  0.86773893  0.11460744  0.06977374    -0.83900
C491        C  0.88802537  0.12445927  0.10308180     1.11200
O492        O  0.65469864  0.08760660  0.19898474    -0.97000
Zr493      Zr  0.70616820  0.08933081  0.13568032     1.88900
O494        O  0.78136557  0.06351874  0.05180478    -0.73600
O495        O  0.81571378  0.11392957  0.21913781    -0.52900
O496        O  0.73648436  0.06760153  0.19913144    -0.97600
O497        O  0.64035294  0.06726863  0.11537628    -0.54800
O498        O  0.73356880  0.05346784  0.10765506    -0.74200
C499        C  0.75906993  0.04841988  0.07480510     0.98200
O500        O  0.84727941  0.08684880  0.00231304    -0.63000
O501        O  0.63865188  0.15092989  0.97197308    -0.57800
O502        O  0.78106808  0.10821419  0.96469380    -0.94500
O503        O  0.70823723  0.11403706  0.95189872    -0.92900
O504        O  0.72671509  0.18772972  0.97744369    -0.93200
O505        O  0.81225085  0.18186324  0.99659461    -0.92000
C506        C  0.74779564  0.11026520  0.93790101     1.17000
H507        H  0.65851003  0.17078645  0.04707625     0.33000
H508        H  0.83035530  0.15082394  0.07103871     0.43800
H509        H  0.70931364  0.07993764  0.03865426     0.37400
H510        H  0.71308961  0.12348532  0.20354709     0.33800
H511        H  0.79118837  0.20804815  0.10892909     0.25600
H512        H  0.83507056  0.10253714  0.20435639     0.31600
H513        H  0.75717561  0.07841080  0.21422857     0.37500
H514        H  0.71678126  0.17371407  0.96112318     0.31900
H515        H  0.63901326  0.14319383  0.94203107     0.30800
H516        H  0.63332249  0.07952989  0.00668126     0.32500
H517        H  0.64431575  0.05213290  0.13028090     0.31500
H518        H  0.82040489  0.16655143  0.98454413     0.35500
H519        H  0.86673675  0.09905744  0.98986010     0.28200
H520        H  0.61661502  0.17917431  0.20437685     0.32400
H521        H  0.63416121  0.10051464  0.19348172     0.35300
H522        H  0.60711375  0.15127005  0.98044812     0.27900
H523        H  0.86577742  0.07815799  0.02404320     0.40800
H524        H  0.82596794  0.18409888  0.17837496     0.30800
H525        H  0.83081369  0.19403009  0.08962302     0.38400
H526        H  0.64349020  0.06400106  0.08255301     0.30300
H527        H  0.83601729  0.12354530  0.23764117     0.30300
H528        H  0.60534071  0.15285450  0.21011380     0.30600
Zr529      Zr  0.52987181  0.39490290  0.46620827     2.17500
O530        O  0.59125865  0.40535571  0.41653586    -0.51800
O531        O  0.52704293  0.43807339  0.45968861    -0.75000
O532        O  0.51265340  0.38893417  0.38647324    -0.81700
O533        O  0.61012855  0.37333020  0.55722858    -0.83500
O534        O  0.44168699  0.37728259  0.37801328    -0.79100
O535        O  0.60633367  0.38597755  0.48434464    -0.90700
O536        O  0.48441495  0.45273499  0.51551494    -0.76700
O537        O  0.45728921  0.40921891  0.47363944    -0.86200
O538        O  0.52498165  0.40724682  0.54295561    -0.85900
O539        O  0.48379659  0.36122264  0.45162124    -0.72600
O540        O  0.54119456  0.36054265  0.51157184    -0.84800
Zr541      Zr  0.41132781  0.35771626  0.58174113     2.26400
Zr542      Zr  0.41118929  0.37672257  0.45582459     2.06300
Zr543      Zr  0.53570623  0.37334266  0.58776377     2.10000
Zr544      Zr  0.45144018  0.42055145  0.55181098     1.78800
O545        O  0.58296188  0.34481174  0.62354319    -0.93600
O546        O  0.39152780  0.44542337  0.52724200    -0.41400
O547        O  0.46279030  0.38808312  0.59943284    -0.78000
O548        O  0.40169472  0.39042641  0.53253473    -0.96700
O549        O  0.41844860  0.34390520  0.50548646    -0.90000
O550        O  0.48397997  0.34237079  0.57606521    -0.92900
C551        C  0.50926272  0.45515852  0.48112342     1.00900
C552        C  0.62770841  0.37822568  0.51874852     1.13800
C553        C  0.48026751  0.38194294  0.36185542     1.04600
O554        O  0.37705414  0.41107370  0.42443412    -0.95000
O555        O  0.33544532  0.37093321  0.47927418    -0.90800
O556        O  0.33433208  0.36322660  0.55515119    -0.83900
C557        C  0.31503299  0.36756294  0.51679609     1.11200
O558        O  0.54461413  0.31262537  0.44894865    -0.97000
Zr559      Zr  0.49081771  0.32869734  0.50107419     1.88900
O560        O  0.40153052  0.31613379  0.58740632    -0.73600
O561        O  0.37030099  0.35222590  0.40304147    -0.52900
O562        O  0.45941987  0.30691392  0.43794083    -0.97600
O563        O  0.54411309  0.30572433  0.54321486    -0.54800
O564        O  0.44699102  0.29848918  0.53763788    -0.74200
C565        C  0.41656598  0.29807714  0.56791613     0.98200
O566        O  0.35086213  0.35715981  0.63612674    -0.63000
O567        O  0.56882796  0.40445064  0.63213777    -0.57800
O568        O  0.43739301  0.36190747  0.66154957    -0.94500
O569        O  0.51247832  0.36281054  0.66255146    -0.92900
O570        O  0.48983581  0.44179176  0.61147267    -0.93200
O571        O  0.39970746  0.43027295  0.61177968    -0.92000
C572        C  0.47509178  0.36195726  0.68228232     1.17000
H573        H  0.54658551  0.41906436  0.54962009     0.33000
H574        H  0.37332438  0.39765347  0.53618242     0.43800
H575        H  0.48857388  0.33022094  0.59796394     0.37400
H576        H  0.49025163  0.35391744  0.42310729     0.33800
H577        H  0.39899847  0.46081947  0.53966271     0.25600
H578        H  0.35714636  0.33976979  0.42168167     0.31600
H579        H  0.42745323  0.31018762  0.43888425     0.37500
H580        H  0.49057735  0.43107171  0.63765477     0.31900
H581        H  0.60071863  0.40094500  0.63294539     0.30800
H582        H  0.60350483  0.35385485  0.64287756     0.32500
H583        H  0.57307217  0.31299342  0.53690319     0.31500
H584        H  0.38694528  0.41530477  0.62144116     0.35500
H585        H  0.35735534  0.34432080  0.65719778     0.28200
H586        H  0.58008645  0.41782299  0.39673559     0.32400
H587        H  0.56430771  0.32575641  0.44146448     0.35300
H588        H  0.55873005  0.40180987  0.66365707     0.27900
H589        H  0.35464308  0.37130722  0.65454091     0.40800
H590        H  0.34963510  0.41302345  0.44212504     0.30800
H591        H  0.39550529  0.44706333  0.49402421     0.38400
H592        H  0.54492124  0.29067055  0.52743968     0.30300
H593        H  0.34499357  0.36158510  0.39265910     0.30300
H594        H  0.59554366  0.39210798  0.39586435     0.30600
Zr595      Zr  0.02772895  0.39301966  0.44170787     2.17500
O596        O  0.08852383  0.40072707  0.38956788    -0.51800
O597        O  0.01629136  0.43423693  0.42127045    -0.75000
O598        O  0.00811778  0.38342456  0.36414284    -0.81700
O599        O  0.10759935  0.38068326  0.54009133    -0.83500
O600        O  0.93749635  0.37054608  0.35833801    -0.79100
O601        O  0.10601508  0.38868787  0.46465814    -0.90700
O602        O  0.95693519  0.44744347  0.45930470    -0.76700
O603        O  0.95241472  0.40384332  0.44659495    -0.86200
O604        O  0.02026243  0.41013088  0.51472503    -0.85900
O605        O  0.98569159  0.35750144  0.43270688    -0.72600
O606        O  0.04402825  0.36288427  0.49529182    -0.84800
Zr607      Zr  0.91581232  0.35651843  0.56428242     2.26400
Zr608      Zr  0.90980062  0.36915316  0.43700144     2.06300
Zr609      Zr  0.03365679  0.37980681  0.56799077     2.10000
Zr610      Zr  0.94473698  0.42052170  0.52013144     1.78800
O611        O  0.09546489  0.36802404  0.61568491    -0.93600
O612        O  0.87358355  0.43804956  0.50400175    -0.41400
O613        O  0.95867223  0.39120056  0.57591352    -0.78000
O614        O  0.90079699  0.38688895  0.51041870    -0.96700
O615        O  0.92514594  0.33944719  0.49124605    -0.90000
O616        O  0.99084020  0.34498788  0.56060669    -0.92900
C617        C  0.98675992  0.44969986  0.42904849     1.00900
C618        C  0.12663597  0.38395498  0.50199926     1.13800
C619        C  0.97530142  0.37571433  0.34093419     1.04600
O620        O  0.86277090  0.39407531  0.39165846    -0.95000
O621        O  0.83392588  0.36515369  0.46516500    -0.90800
O622        O  0.83824410  0.35902324  0.54154159    -0.83900
C623        C  0.81622713  0.36258955  0.50468829     1.11200
O624        O  0.06534552  0.31449729  0.44853987    -0.97000
Zr625      Zr  0.00046303  0.32849490  0.48799092     1.88900
O626        O  0.90542457  0.31470222  0.56754823    -0.73600
O627        O  0.88036641  0.33376248  0.40412327    -0.52900
O628        O  0.98575701  0.30394565  0.42249695    -0.97600
O629        O  0.05144060  0.30661166  0.53526330    -0.54800
O630        O  0.95213789  0.29858340  0.51746801    -0.74200
C631        C  0.92064261  0.29716673  0.54626271     0.98200
O632        O  0.85879427  0.35663683  0.62252963    -0.63000
O633        O  0.04087805  0.41696453  0.60593951    -0.57800
O634        O  0.94423426  0.35839518  0.64294043    -0.94500
O635        O  0.01851434  0.36335867  0.64056629    -0.92900
O636        O  0.98638172  0.45166782  0.55598424    -0.93200
O637        O  0.90684990  0.43482731  0.58709051    -0.92000
C638        C  0.98264473  0.35953511  0.66167632     1.17000
H639        H  0.04036434  0.42301387  0.51822650     0.33000
H640        H  0.87188179  0.39330775  0.51411796     0.43800
H641        H  0.99732384  0.33373535  0.58382167     0.37400
H642        H  0.99223691  0.34937825  0.40505674     0.33800
H643        H  0.87909048  0.45485685  0.50586108     0.25600
H644        H  0.85754504  0.33891497  0.38232077     0.31600
H645        H  0.95428387  0.29955739  0.42514526     0.37500
H646        H  0.97289859  0.46595435  0.54414244     0.31900
H647        H  0.02108842  0.41579313  0.63251929     0.30800
H648        H  0.10306638  0.38151404  0.63479322     0.32500
H649        H  0.03272247  0.29796470  0.55699032     0.31500
H650        H  0.88635451  0.42221429  0.59571550     0.35500
H651        H  0.86408738  0.34279548  0.64137644     0.28200
H652        H  0.07710944  0.41208578  0.36744063     0.32400
H653        H  0.08254926  0.32857247  0.44121416     0.35300
H654        H  0.07097037  0.41729104  0.61905715     0.27900
H655        H  0.86557234  0.36988564  0.64262424     0.40800
H656        H  0.84617483  0.38344979  0.37145250     0.30800
H657        H  0.86834910  0.43507535  0.47129597     0.38400
H658        H  0.06709966  0.31825797  0.55400088     0.30300
H659        H  0.90447459  0.32785690  0.38492561     0.30300
H660        H  0.09228954  0.38640355  0.37177040     0.30600
Zr661      Zr  0.95692022  0.60101024  0.35549079     2.17500
O662        O  0.89283630  0.58656328  0.31368758    -0.51800
O663        O  0.95460725  0.55799139  0.36374457    -0.75000
O664        O  0.96891374  0.60520966  0.27390657    -0.81700
O665        O  0.88362445  0.62470647  0.44907478    -0.83500
O666        O  0.03985492  0.61681439  0.26314686    -0.79100
O667        O  0.88296561  0.61413310  0.37501339    -0.90700
O668        O  0.02627946  0.55243030  0.37078122    -0.76700
O669        O  0.03130655  0.58806250  0.35702097    -0.86200
O670        O  0.96904491  0.58892048  0.43206501    -0.85900
O671        O  0.00207186  0.63454868  0.33665537    -0.72600
O672        O  0.94874255  0.63553689  0.40032638    -0.84800
Zr673      Zr  0.08168510  0.64071201  0.46328438     2.26400
Zr674      Zr  0.07616510  0.62055086  0.33794529     2.06300
Zr675      Zr  0.95968232  0.62306959  0.47597142     2.10000
Zr676      Zr  0.04422266  0.57663148  0.43380423     1.78800
O677        O  0.91246191  0.64875100  0.51909414    -0.93600
O678        O  0.11115219  0.55532385  0.41709140    -0.41400
O679        O  0.03380752  0.60907687  0.48248024    -0.78000
O680        O  0.09134423  0.60782473  0.41450435    -0.96700
O681        O  0.07004837  0.65353842  0.38683536    -0.90000
O682        O  0.00816290  0.65507745  0.46035323    -0.92900
C683        C  0.98766564  0.54423682  0.36662462     1.00900
C684        C  0.86371330  0.62149823  0.41092096     1.13800
C685        C  0.00070024  0.61200516  0.24832046     1.04600
O686        O  0.11423144  0.58748780  0.30629934    -0.95000
O687        O  0.15275157  0.62843627  0.35785220    -0.90800
O688        O  0.15689329  0.63772064  0.43271487    -0.83900
C689        C  0.17483882  0.63337809  0.39395253     1.11200
O690        O  0.93825308  0.68432266  0.33909013    -0.97000
Zr691      Zr  0.99703617  0.66762010  0.38460349     1.88900
O692        O  0.09065422  0.68259187  0.46584672    -0.73600
O693        O  0.10964794  0.64684280  0.28321561    -0.52900
O694        O  0.02090456  0.68542191  0.31365655    -0.97600
O695        O  0.94530446  0.69213278  0.42473303    -0.54800
O696        O  0.04598882  0.69817799  0.41245198    -0.74200
C697        C  0.07659174  0.69980688  0.44263337     0.98200
O698        O  0.14552092  0.64287182  0.51381001    -0.63000
O699        O  0.93250489  0.59083774  0.52135204    -0.57800
O700        O  0.06174519  0.63538708  0.54480554    -0.94500
O701        O  0.98698544  0.63413590  0.54864499    -0.92900
O702        O  0.00468745  0.54713861  0.47670568    -0.93200
O703        O  0.08853551  0.56366585  0.49793668    -0.92000
C704        C  0.02503830  0.63486452  0.56709498     1.17000
H705        H  0.94853122  0.57692504  0.44094794     0.33000
H706        H  0.12049216  0.60144504  0.41714760     0.43800
H707        H  0.00405299  0.66740731  0.48189903     0.37400
H708        H  0.99362290  0.64123706  0.30801658     0.33800
H709        H  0.10233571  0.53891287  0.41938831     0.25600
H710        H  0.11638153  0.63725934  0.25631914     0.31600
H711        H  0.04186497  0.69774877  0.32269505     0.37500
H712        H  0.01690722  0.53238215  0.46580586     0.31900
H713        H  0.95225553  0.59035765  0.54819000     0.30800
H714        H  0.89627832  0.63865152  0.54056394     0.32500
H715        H  0.96371036  0.70189732  0.44495182     0.31500
H716        H  0.10901162  0.57667074  0.50416342     0.35500
H717        H  0.13855544  0.65489823  0.53643538     0.28200
H718        H  0.90321181  0.57269559  0.29754447     0.32400
H719        H  0.91828720  0.67119278  0.33226379     0.35300
H720        H  0.90384634  0.59602353  0.53343937     0.27900
H721        H  0.14541524  0.62821883  0.53102759     0.40800
H722        H  0.14183689  0.58625779  0.32417853     0.30800
H723        H  0.11626694  0.55782162  0.38422737     0.38400
H724        H  0.92934915  0.68159634  0.44554175     0.30300
H725        H  0.08538861  0.65695817  0.27316247     0.30300
H726        H  0.88693135  0.59797608  0.28946810     0.30600
Zr727      Zr  0.58093305  0.65849885  0.34535800     2.17500
O728        O  0.63853484  0.67262843  0.29461864    -0.51800
O729        O  0.59148358  0.70000389  0.35880578    -0.75000
O730        O  0.55727906  0.65616445  0.26408643    -0.81700
O731        O  0.65408170  0.63939652  0.44538432    -0.83500
O732        O  0.48577091  0.66283639  0.27323019    -0.79100
O733        O  0.65585392  0.64628689  0.36947778    -0.90700
O734        O  0.53879080  0.71231381  0.40719455    -0.76700
O735        O  0.50477789  0.66907538  0.34920411    -0.86200
O736        O  0.56734811  0.66822833  0.42342767    -0.85900
O737        O  0.53819069  0.62497688  0.32119440    -0.72600
O738        O  0.59432581  0.62531144  0.39180334    -0.84800
Zr739      Zr  0.46396896  0.60979033  0.44749705     2.26400
Zr740      Zr  0.46196777  0.63526437  0.32926865     2.06300
Zr741      Zr  0.57821788  0.63476611  0.46931884     2.10000
Zr742      Zr  0.49226118  0.67902687  0.42614964     1.78800
O743        O  0.61180334  0.60340084  0.51176608    -0.93600
O744        O  0.44059524  0.70276310  0.38348712    -0.41400
O745        O  0.50279344  0.64456762  0.46980433    -0.78000
O746        O  0.44912227  0.64550905  0.40671459    -0.96700
O747        O  0.47748824  0.60050511  0.37008272    -0.90000
O748        O  0.54035940  0.60079122  0.44476339    -0.92900
C749        C  0.57375029  0.71571982  0.38337117     1.00900
C750        C  0.67500371  0.64150508  0.40778883     1.13800
C751        C  0.51806651  0.65825330  0.24745744     1.04600
O752        O  0.40323860  0.64826666  0.27898035    -0.95000
O753        O  0.38552618  0.62985954  0.35247942    -0.90800
O754        O  0.38669232  0.61356416  0.42250908    -0.83900
C755        C  0.36607351  0.62206649  0.38810532     1.11200
O756        O  0.61365309  0.58957923  0.31084970    -0.97000
Zr757      Zr  0.55472138  0.59230683  0.36666074     1.88900
O758        O  0.47948482  0.56720295  0.45085833    -0.73600
O759        O  0.45820280  0.60396314  0.27440939    -0.52900
O760        O  0.53292222  0.56909230  0.30133996    -0.97600
O761        O  0.61594286  0.57160414  0.40124707    -0.54800
O762        O  0.52731623  0.55678618  0.39562388    -0.74200
C763        C  0.50237050  0.55197851  0.42904171     0.98200
O764        O  0.41194399  0.58916804  0.49620600    -0.63000
O765        O  0.61680908  0.66106850  0.52088762    -0.57800
O766        O  0.46882802  0.61999497  0.52782073    -0.94500
O767        O  0.53630295  0.63580487  0.54107710    -0.92900
O768        O  0.50882649  0.69754035  0.49849058    -0.93200
O769        O  0.42963492  0.68997939  0.47279115    -0.92000
C770        C  0.49751280  0.62942078  0.55427358     1.17000
H771        H  0.58717615  0.68000604  0.43465885     0.33000
H772        H  0.41997227  0.65125441  0.41237065     0.43800
H773        H  0.54804969  0.58818673  0.46450585     0.37400
H774        H  0.54409018  0.61980457  0.29065508     0.33800
H775        H  0.44374359  0.71831189  0.39695880     0.25600
H776        H  0.42745435  0.59818859  0.27637460     0.31600
H777        H  0.50193628  0.56456169  0.30726368     0.37500
H778        H  0.54139359  0.69755517  0.50066407     0.31900
H779        H  0.62918435  0.67344711  0.50148286     0.30800
H780        H  0.63002735  0.59522874  0.48921273     0.32500
H781        H  0.63959841  0.58329849  0.40509115     0.31500
H782        H  0.41520678  0.67523747  0.48130895     0.35500
H783        H  0.39070990  0.60072033  0.50716317     0.28200
H784        H  0.62438067  0.68455669  0.27551057     0.32400
H785        H  0.63650269  0.60064258  0.32140828     0.35300
H786        H  0.59348592  0.66874095  0.53860996     0.27900
H787        H  0.39458981  0.57893239  0.47589864     0.40800
H788        H  0.39657146  0.66410072  0.28926706     0.30800
H789        H  0.45341337  0.70436954  0.35274178     0.38400
H790        H  0.62694044  0.56110512  0.37743088     0.30300
H791        H  0.45984148  0.61163818  0.24441196     0.30300
H792        H  0.64443869  0.65972897  0.27364402     0.30600
Zr793      Zr  0.09839440  0.34967115  0.06851760     2.17500
O794        O  0.15815378  0.34548561  0.12350493    -0.51800
O795        O  0.11203692  0.30810190  0.07072575    -0.75000
O796        O  0.07207592  0.35370296  0.14667292    -0.81700
O797        O  0.17627759  0.36665472  0.97116474    -0.83500
O798        O  0.00309124  0.34342522  0.13240610    -0.79100
O799        O  0.17302516  0.36040777  0.04723800    -0.90700
O800        O  0.06320216  0.29099329  0.02290261    -0.76700
O801        O  0.02381873  0.33630906  0.06497007    -0.86200
O802        O  0.08956711  0.33408297  0.99376554    -0.85900
O803        O  0.05401046  0.38365694  0.08214427    -0.72600
O804        O  0.11109975  0.38040939  0.01537538    -0.84800
Zr805      Zr  0.98190906  0.38666989  0.95218511     2.26400
Zr806      Zr  0.97934388  0.37008276  0.07545912     2.06300
Zr807      Zr  0.10068351  0.36480366  0.94085751     2.10000
Zr808      Zr  0.01527165  0.32100512  0.99089435     1.78800
O809        O  0.14350143  0.39073511  0.89284646    -0.93600
O810        O  0.96334216  0.29809390  0.03533346    -0.41400
O811        O  0.02541421  0.35252243  0.93884305    -0.78000
O812        O  0.96798370  0.35394229  0.00144308    -0.96700
O813        O  0.99222293  0.40215387  0.02584487    -0.90000
O814        O  0.05744848  0.39832367  0.95367363    -0.92900
C815        C  0.09634411  0.29022321  0.05043277     1.00900
C816        C  0.19442771  0.36518181  0.01078537     1.13800
C817        C  0.03251610  0.35016945  0.16019435     1.04600
O818        O  0.91918395  0.36003818  0.12661333    -0.95000
O819        O  0.90354259  0.37494545  0.05264976    -0.90800
O820        O  0.90480739  0.38545704  0.97860265    -0.83900
C821        C  0.88426354  0.38061823  0.01565533     1.11200
O822        O  0.10999962  0.42687078  0.09408917    -0.97000
Zr823      Zr  0.06786768  0.41385751  0.02805983     1.88900
O824        O  0.99158734  0.42841048  0.93358260    -0.73600
O825        O  0.97698242  0.40229984  0.12835442    -0.52900
O826        O  0.03073352  0.44483357  0.06823283    -0.97600
O827        O  0.13844457  0.42984859  0.00354479    -0.54800
O828        O  0.04760551  0.44367707  0.97499222    -0.74200
C829        C  0.01827803  0.44517363  0.94380906     0.98200
O830        O  0.92635130  0.39577490  0.89469485    -0.63000
O831        O  0.13363334  0.33160865  0.90372331    -0.57800
O832        O  0.99304827  0.37468560  0.87539319    -0.94500
O833        O  0.06500859  0.36539242  0.86518538    -0.92900
O834        O  0.03916687  0.29781135  0.92675272    -0.93200
O835        O  0.95575476  0.30582213  0.94362430    -0.92000
C836        C  0.02551126  0.36900845  0.85041286     1.17000
H837        H  0.11058952  0.32214415  0.98735580     0.33000
H838        H  0.93848549  0.34791915  0.99758174     0.43800
H839        H  0.06497575  0.40893804  0.92955664     0.37400
H840        H  0.05931326  0.39016012  0.11213004     0.33800
H841        H  0.98055432  0.29260300  0.06180635     0.25600
H842        H  0.94678434  0.40845778  0.12508761     0.31600
H843        H  0.99898389  0.44076884  0.06782734     0.37500
H844        H  0.03606914  0.28163008  0.93710003     0.31900
H845        H  0.12099444  0.33136942  0.87266974     0.30800
H846        H  0.16082521  0.38043060  0.87309298     0.32500
H847        H  0.14118373  0.42490156  0.97149461     0.31500
H848        H  0.94353124  0.31951838  0.92812001     0.35500
H849        H  0.90511679  0.38273701  0.89409659     0.28200
H850        H  0.14731383  0.33431471  0.14636841     0.32400
H851        H  0.11625640  0.44340355  0.08862070     0.35300
H852        H  0.16493579  0.33597678  0.89929425     0.27900
H853        H  0.90962716  0.40907747  0.90645386     0.40800
H854        H  0.91391708  0.34336603  0.12175400     0.30800
H855        H  0.94272634  0.30947132  0.04821527     0.38400
H856        H  0.16098900  0.42079970  0.01993589     0.30300
H857        H  0.97732458  0.39515152  0.15891157     0.30300
H858        H  0.15963841  0.36036939  0.13980049     0.30600
Zr859      Zr  0.59973762  0.35925509  0.08362556     2.17500
O860        O  0.66123484  0.35754522  0.13717517    -0.51800
O861        O  0.61046298  0.31790384  0.08502461    -0.75000
O862        O  0.57612859  0.36193134  0.16370347    -0.81700
O863        O  0.67236462  0.37333158  0.97876490    -0.83500
O864        O  0.50683119  0.35101258  0.15228670    -0.79100
O865        O  0.67442264  0.36726174  0.05520727    -0.90700
O866        O  0.56248935  0.30131424  0.03551251    -0.76700
O867        O  0.52577584  0.34463297  0.07991927    -0.86200
O868        O  0.58901205  0.34598321  0.00716237    -0.85900
O869        O  0.55236718  0.39114569  0.10297133    -0.72600
O870        O  0.61121192  0.39109807  0.03304364    -0.84800
Zr871      Zr  0.47781431  0.39813513  0.97528967     2.26400
Zr872      Zr  0.47804460  0.37666189  0.09561347     2.06300
Zr873      Zr  0.59571111  0.37848226  0.95687161     2.10000
Zr874      Zr  0.51565661  0.33170550  0.00434390     1.78800
O875        O  0.63122249  0.41115731  0.91956786    -0.93600
O876        O  0.46146313  0.30827160  0.04476002    -0.41400
O877        O  0.52162450  0.36507731  0.95665171    -0.78000
O878        O  0.46682938  0.36324594  0.01947421    -0.96700
O879        O  0.49026060  0.41056776  0.05111189    -0.90000
O880        O  0.55236575  0.41126958  0.97636903    -0.92900
C881        C  0.59454636  0.30032303  0.06418260     1.00900
C882        C  0.69324492  0.37070849  0.01647158     1.13800
C883        C  0.53716345  0.35797293  0.17893560     1.04600
O884        O  0.42326458  0.36225541  0.14912644    -0.95000
O885        O  0.40091183  0.37823373  0.07199585    -0.90800
O886        O  0.40201565  0.39318561  0.00098163    -0.83900
C887        C  0.38153674  0.38499570  0.03553740     1.11200
O888        O  0.62566835  0.42954734  0.10745925    -0.97000
Zr889      Zr  0.56608651  0.42256269  0.05327097     1.88900
O890        O  0.48050447  0.44094043  0.97205204    -0.73600
O891        O  0.46957196  0.40930812  0.14664732    -0.52900
O892        O  0.54952132  0.44939430  0.11427270    -0.97600
O893        O  0.62143983  0.44432926  0.01090615    -0.54800
O894        O  0.52641655  0.45476103  0.02666626    -0.74200
C895        C  0.49884721  0.45756752  0.99459914     0.98200
O896        O  0.42202385  0.40949921  0.91970160    -0.63000
O897        O  0.62835782  0.35251863  0.90172866    -0.57800
O898        O  0.48655532  0.38892748  0.89549185    -0.94500
O899        O  0.55596744  0.37601962  0.88370985    -0.92900
O900        O  0.54038513  0.31390049  0.93411359    -0.93200
O901        O  0.46007505  0.31261509  0.95745427    -0.92000
C902        C  0.51669478  0.38084436  0.86978093     1.17000
H903        H  0.61023228  0.33440641  0.99893451     0.33000
H904        H  0.43831766  0.35630198  0.01423367     0.43800
H905        H  0.55711254  0.42377757  0.95521717     0.37400
H906        H  0.55747634  0.39726605  0.13304276     0.33800
H907        H  0.47891024  0.29868234  0.06591938     0.25600
H908        H  0.43783870  0.40932283  0.15443812     0.31600
H909        H  0.54087333  0.43961166  0.14035513     0.37500
H910        H  0.55420020  0.32657570  0.91652767     0.31900
H911        H  0.65221782  0.36162909  0.88728431     0.30800
H912        H  0.64011470  0.40523318  0.88947080     0.32500
H913        H  0.65015327  0.43991823  0.02428665     0.31500
H914        H  0.43470911  0.32322317  0.95729083     0.35500
H915        H  0.40221416  0.39601345  0.91540959     0.28200
H916        H  0.65388945  0.34500298  0.15875190     0.32400
H917        H  0.64066788  0.41453116  0.11048110     0.35300
H918        H  0.64359445  0.34067037  0.91999294     0.27900
H919        H  0.40370019  0.42129028  0.93468210     0.40800
H920        H  0.41753050  0.34612027  0.13973556     0.30800
H921        H  0.44587291  0.31923811  0.06466499     0.38400
H922        H  0.61730991  0.46053107  0.02033647     0.30300
H923        H  0.48455579  0.40461592  0.17506489     0.30300
H924        H  0.65965223  0.37190343  0.15524779     0.30600
Zr925      Zr  0.51504325  0.61248557  0.95883700     2.17500
O926        O  0.57836894  0.60028339  0.00394557    -0.51800
O927        O  0.50873470  0.56982669  0.96436631    -0.75000
O928        O  0.50150264  0.61949558  0.03982829    -0.81700
O929        O  0.59484869  0.62540239  0.86079380    -0.83500
O930        O  0.43139215  0.63223388  0.04815532    -0.79100
O931        O  0.59158713  0.61837025  0.93665449    -0.90700
O932        O  0.46287648  0.55637197  0.90942611    -0.76700
O933        O  0.43985937  0.60081716  0.95340495    -0.86200
O934        O  0.50531334  0.60004710  0.88221878    -0.85900
O935        O  0.47453893  0.64733585  0.97444098    -0.72600
O936        O  0.53179333  0.64531132  0.91117685    -0.84800
Zr937      Zr  0.39911592  0.65352019  0.84559720     2.26400
Zr938      Zr  0.39882680  0.63494884  0.97096399     2.06300
Zr939      Zr  0.51996727  0.63289272  0.83541035     2.10000
Zr940      Zr  0.42988285  0.58906829  0.87590351     1.78800
O941        O  0.56947759  0.66247377  0.80574193    -0.93600
O942        O  0.36847493  0.56765489  0.90916779    -0.41400
O943        O  0.44441676  0.62094191  0.82707680    -0.78000
O944        O  0.38616186  0.62087665  0.89492285    -0.96700
O945        O  0.41267100  0.66686697  0.92109663    -0.90000
O946        O  0.47465411  0.66590712  0.84867570    -0.92900
C947        C  0.48941168  0.55333817  0.94233398     1.00900
C948        C  0.61295434  0.62182122  0.89966881     1.13800
C949        C  0.46982087  0.62715355  0.06441297     1.04600
O950        O  0.35550919  0.60658433  0.01283674    -0.95000
O951        O  0.32220652  0.64031109  0.94570868    -0.90800
O952        O  0.32201283  0.64623124  0.86900398    -0.83900
C953        C  0.30221055  0.64250855  0.90719012     1.11200
O954        O  0.55561067  0.69044179  0.96298765    -0.97000
Zr955      Zr  0.48799987  0.67874010  0.92396642     1.88900
O956        O  0.38769163  0.69521772  0.85612635    -0.73600
O957        O  0.36719249  0.66723903  0.01204105    -0.52900
O958        O  0.47134233  0.69915541  0.99405139    -0.97600
O959        O  0.53561041  0.70451325  0.88012167    -0.54800
O960        O  0.44064424  0.70995557  0.90268785    -0.74200
C961        C  0.40558506  0.71184839  0.87880727     0.98200
O962        O  0.34039404  0.66138315  0.79091912    -0.63000
O963        O  0.54654155  0.60346479  0.78350599    -0.57800
O964        O  0.42167780  0.64927558  0.76456565    -0.94500
O965        O  0.49554614  0.64283881  0.76083192    -0.92900
O966        O  0.45431530  0.56463467  0.81388207    -0.93200
O967        O  0.37312212  0.58029620  0.81965000    -0.92000
C968        C  0.45807565  0.64644686  0.74249588     1.17000
H969        H  0.52490388  0.58754007  0.87503033     0.33000
H970        H  0.35778138  0.61348120  0.89192857     0.43800
H971        H  0.48010330  0.67782020  0.82640116     0.37400
H972        H  0.48267063  0.65448737  0.00275966     0.33800
H973        H  0.37472669  0.55128106  0.90267820     0.25600
H974        H  0.34175137  0.66054278  0.02854865     0.31600
H975        H  0.43875566  0.69961160  0.99515709     0.37500
H976        H  0.48665096  0.56685937  0.81267942     0.31900
H977        H  0.52044177  0.59889619  0.76522220     0.30800
H978        H  0.58064846  0.65614471  0.77681475     0.32500
H979        H  0.51773381  0.70990032  0.85405094     0.31500
H980        H  0.37577310  0.59272721  0.79672839     0.35500
H981        H  0.35211831  0.67339709  0.77023190     0.28200
H982        H  0.56826392  0.58644764  0.02070368     0.32400
H983        H  0.55308680  0.70725825  0.96788118     0.35300
H984        H  0.56580653  0.61187886  0.76188223     0.27900
H985        H  0.33746414  0.64732744  0.77206001     0.40800
H986        H  0.33450420  0.60015632  0.99025444     0.30800
H987        H  0.37268051  0.56914156  0.94240699     0.38400
H988        H  0.55815302  0.69442403  0.86660094     0.30300
H989        H  0.38886884  0.67107496  0.03613327     0.30300
H990        H  0.58299514  0.61224181  0.02746963     0.30600
Zr991      Zr  0.89866213  0.64008870  0.96430035     2.17500
O992        O  0.83678199  0.64772946  0.01466086    -0.51800
O993        O  0.88916673  0.68194539  0.96104000    -0.75000
O994        O  0.91986556  0.63680382  0.04514028    -0.81700
O995        O  0.82491883  0.61944004  0.86447203    -0.83500
O996        O  0.99144630  0.64555146  0.03927596    -0.79100
O997        O  0.82398941  0.63007225  0.93871601    -0.90700
O998        O  0.93881525  0.69682465  0.91193608    -0.76700
O999        O  0.97272913  0.65431295  0.95909469    -0.86200
O1000       O  0.90823843  0.65076396  0.88626728    -0.85900
O1001       O  0.94495735  0.60800308  0.98593299    -0.72600
O1002       O  0.88710360  0.60680976  0.91739410    -0.84800
Zr1003     Zr  0.02045627  0.59736023  0.86040024     2.26400
Zr1004     Zr  0.01933059  0.62215728  0.97819167     2.06300
Zr1005     Zr  0.90112543  0.61690352  0.83976645     2.10000
Zr1006     Zr  0.98144354  0.66478229  0.88158732     1.78800
O1007       O  0.86887740  0.58383379  0.80063770    -0.93600
O1008       O  0.03924966  0.68968436  0.91232510    -0.41400
O1009       O  0.97520130  0.62978359  0.83924688    -0.78000
O1010       O  0.02992016  0.63366749  0.90096809    -0.96700
O1011       O  0.00741249  0.58711480  0.93724858    -0.90000
O1012       O  0.94533756  0.58470017  0.86117121    -0.92900
C1013       C  0.90639122  0.69905891  0.93951230     1.00900
C1014       C  0.80454145  0.62388939  0.90159973     1.13800
C1015       C  0.95809735  0.63995568  0.06324484     1.04600
O1016       O  0.07599663  0.63809466  0.02812050    -0.95000
O1017       O  0.09636541  0.62082214  0.95333907    -0.90800
O1018       O  0.09729233  0.60616544  0.88203735    -0.83900
C1019       C  0.11687973  0.61501840  0.91689213     1.11200
O1020       O  0.88681292  0.56346106  0.00386633    -0.97000
Zr1021     Zr  0.93151342  0.57527463  0.93914481     1.88900
O1022       O  0.02103312  0.55421128  0.87169007    -0.73600
O1023       O  0.02997561  0.59003405  0.03018337    -0.52900
O1024       O  0.96785866  0.54889814  0.99143249    -0.97600
O1025       O  0.86066051  0.55811306  0.91809330    -0.54800
O1026       O  0.95365631  0.54309561  0.89583568    -0.74200
C1027       C  0.99214058  0.53842723  0.88204744     0.98200
O1028       O  0.07378801  0.57947640  0.80977237    -0.63000
O1029       O  0.86106901  0.64155413  0.78710387    -0.57800
O1030       O  0.01149229  0.60703140  0.78012504    -0.94500
O1031       O  0.94243604  0.62042922  0.76786721    -0.92900
O1032       O  0.94692778  0.68253984  0.81551688    -0.93200
O1033       O  0.03259755  0.67734586  0.82277392    -0.92000
C1034       C  0.98191766  0.61589186  0.75431570     1.17000
H1035       H  0.88711162  0.66222929  0.87706651     0.33000
H1036       H  0.05776580  0.64112239  0.89506712     0.43800
H1037       H  0.94047132  0.57223646  0.83999881     0.37400
H1038       H  0.94031145  0.60211364  0.01620756     0.33800
H1039       H  0.03456932  0.70479196  0.89753116     0.25600
H1040       H  0.06237487  0.58831273  0.03223143     0.31600
H1041       H  0.95562173  0.53345682  0.98416009     0.37500
H1042       H  0.94901850  0.69933594  0.82102005     0.31900
H1043       H  0.83719386  0.63164892  0.77468167     0.30800
H1044       H  0.87333467  0.58714054  0.76795352     0.32500
H1045       H  0.86039443  0.55838683  0.88447892     0.31500
H1046       H  0.03782444  0.66336755  0.80436540     0.35500
H1047       H  0.05636265  0.57032568  0.78759538     0.28200
H1048       H  0.84673805  0.66042594  0.03475150     0.32400
H1049       H  0.86961510  0.57729359  0.01178900     0.35300
H1050       H  0.84575596  0.65295728  0.80627375     0.27900
H1051       H  0.08739631  0.59209843  0.79185448     0.40800
H1052       H  0.07941973  0.65433049  0.01831225     0.30800
H1053       H  0.03078573  0.69218070  0.94438208     0.38400
H1054       H  0.83811454  0.56951633  0.92691488     0.30300
H1055       H  0.02132053  0.59610237  0.06026249     0.30300
H1056       H  0.83443683  0.63408485  0.03473777     0.30600
C1057       C  0.66176133  0.62174887  0.90188577    -0.00600
C1058       C  0.68504477  0.61081053  0.86713607    -0.12500
C1059       C  0.73119299  0.61042146  0.86708809     0.01700
C1060       C  0.75539100  0.62195411  0.90175818    -0.00700
C1061       C  0.73178705  0.63252632  0.93705641    -0.12400
C1062       C  0.68559191  0.63241637  0.93756262     0.01500
H1063       H  0.66698027  0.60212048  0.84017662     0.14500
H1064       H  0.74937565  0.64141127  0.96406367     0.14500
C1065       C  0.66375133  0.64436749  0.97403254     0.36200
C1066       C  0.75217423  0.59728122  0.83173098     0.36100
N1067       N  0.64663464  0.65400805  0.00340863    -0.44200
N1068       N  0.76846609  0.58653161  0.80338586    -0.44200
C1069       C  0.25393263  0.63750726  0.90657939    -0.00600
C1070       C  0.23756562  0.62028809  0.87734028    -0.12500
C1071       C  0.19379272  0.61215626  0.88055992     0.01700
C1072       C  0.16489020  0.62146983  0.91347515    -0.00700
C1073       C  0.18140240  0.63912226  0.94193115    -0.12400
C1074       C  0.22509713  0.64713851  0.93864386     0.01500
H1075       H  0.25968748  0.61240618  0.85311782     0.14500
H1076       H  0.15985120  0.64716328  0.96645130     0.14500
C1077       C  0.23905848  0.66605474  0.96717491     0.36200
C1078       C  0.18057508  0.59346749  0.85108337     0.36100
N1079       N  0.25002217  0.68143197  0.98961784    -0.44200
N1080       N  0.17067396  0.57834874  0.82747299    -0.44200
C1081       C  0.49135895  0.48190621  0.98176847    -0.00600
C1082       C  0.49382075  0.48799565  0.93586838    -0.12500
C1083       C  0.49616426  0.51114598  0.92265520     0.01700
C1084       C  0.49547588  0.52892351  0.95573821    -0.00700
C1085       C  0.49295625  0.52284177  0.00171401    -0.12400
C1086       C  0.49068330  0.49963818  0.01491793     0.01500
H1087       H  0.49593908  0.47460611  0.91029653     0.14500
H1088       H  0.49105428  0.53623549  0.02728319     0.14500
C1089       C  0.48640936  0.49450100  0.06275270     0.36200
C1090       C  0.50075952  0.51605475  0.87477572     0.36100
N1091       N  0.48283497  0.49041352  0.10106566    -0.44200
N1092       N  0.50455279  0.51971340  0.83632708    -0.44200
C1093       C  0.83522844  0.37981210  0.01527399    -0.00600
C1094       C  0.81349480  0.37051806  0.97725268    -0.12500
C1095       C  0.76772242  0.36682785  0.97717971     0.01700
C1096       C  0.74226822  0.37294976  0.01555211    -0.00700
C1097       C  0.76407736  0.38243859  0.05346409    -0.12400
C1098       C  0.80991554  0.38587201  0.05368357     0.01500
H1099       H  0.83260793  0.36522150  0.94803686     0.14500
H1100       H  0.74516635  0.38754023  0.08294733     0.14500
C1101       C  0.82988630  0.39620567  0.09343021     0.36200
C1102       C  0.74859001  0.35545884  0.93815384     0.36100
N1103       N  0.84578078  0.40450378  0.12531878    -0.44200
N1104       N  0.73420677  0.34612053  0.90664730    -0.44200
C1105       C  0.24254615  0.37031793  0.01613292    -0.00600
C1106       C  0.25909533  0.37554994  0.05989585    -0.12500
C1107       C  0.30375948  0.38084457  0.06722838     0.01700
C1108       C  0.33328073  0.38101253  0.03032320    -0.00700
C1109       C  0.31686403  0.37585590  0.98668593    -0.12400
C1110       C  0.27231831  0.37054783  0.97925803     0.01500
H1111       H  0.23698187  0.37583507  0.08875076     0.14500
H1112       H  0.33922098  0.37543779  0.95803154     0.14500
C1113       C  0.25888848  0.36492854  0.93345461     0.36200
C1114       C  0.31792451  0.38677422  0.11267136     0.36100
N1115       N  0.24859821  0.36051368  0.89655829    -0.44200
N1116       N  0.32916111  0.39160181  0.14908326    -0.44200
C1117       C  0.00301226  0.51326343  0.88353618    -0.00600
C1118       C  0.04429610  0.50642250  0.89996971    -0.12500
C1119       C  0.05087118  0.48402373  0.91713192     0.01700
C1120       C  0.01540017  0.46775700  0.91863274    -0.00700
C1121       C  0.97567991  0.47386975  0.89744954    -0.12400
C1122       C  0.96926603  0.49615368  0.87998563     0.01500
H1123       H  0.07072721  0.51905816  0.90250974     0.14500
H1124       H  0.94855213  0.46159072  0.89655123     0.14500
C1125       C  0.92658701  0.50125886  0.86064375     0.36200
C1126       C  0.09451177  0.47856531  0.93338514     0.36100
N1127       N  0.89224970  0.50529735  0.84548124    -0.44200
N1128       N  0.12975635  0.47449148  0.94605600    -0.44200
C1129       C  0.50787364  0.65192472  0.19906034    -0.00600
C1130       C  0.52983306  0.63322003  0.17937194    -0.12500
C1131       C  0.51639843  0.62388705  0.13729416     0.01700
C1132       C  0.48057902  0.63354674  0.11283596    -0.00700
C1133       C  0.45851985  0.65221922  0.13274938    -0.12400
C1134       C  0.47163400  0.66135503  0.17504866     0.01500
H1135       H  0.55645604  0.62509636  0.19795735     0.14500
H1136       H  0.43164736  0.66031893  0.11452732     0.14500
C1137       C  0.44804741  0.68100572  0.19216088     0.36200
C1138       C  0.53868061  0.60355666  0.12159347     0.36100
N1139       N  0.42906434  0.69680982  0.20551621    -0.44200
N1140       N  0.55659760  0.58707429  0.10999450    -0.44200
C1141       C  0.48374636  0.63457343  0.60185784    -0.00600
C1142       C  0.49895098  0.65492849  0.62273987    -0.12500
C1143       C  0.48715988  0.66034428  0.66755474     0.01700
C1144       C  0.45864578  0.64563450  0.69223702    -0.00700
C1145       C  0.44196123  0.62580723  0.67088992    -0.12400
C1146       C  0.45471956  0.61998608  0.62650743     0.01500
H1147       H  0.52085436  0.66644863  0.60434092     0.14500
H1148       H  0.42201981  0.61376971  0.69036359     0.14500
C1149       C  0.44136872  0.59773306  0.60922749     0.36200
C1150       C  0.50650745  0.68051449  0.68859666     0.36100
N1151       N  0.43116516  0.57969221  0.59601371    -0.44200
N1152       N  0.52208039  0.69655392  0.70581728    -0.44200
C1153       C  0.81574918  0.62687059  0.40863256    -0.00600
C1154       C  0.79056616  0.62371425  0.44791519    -0.12500
C1155       C  0.74541071  0.62834139  0.44859820     0.01700
C1156       C  0.72370806  0.63686903  0.40900590    -0.00700
C1157       C  0.74922351  0.64023383  0.36960854    -0.12400
C1158       C  0.79462281  0.63534241  0.36906995     0.01500
H1159       H  0.80621094  0.61713072  0.47845363     0.14500
H1160       H  0.73378317  0.64676986  0.33897051     0.14500
C1161       C  0.81884888  0.63997880  0.32788128     0.36200
C1162       C  0.72298401  0.62351222  0.49082448     0.36100
N1163       N  0.83819114  0.64374858  0.29483567    -0.44200
N1164       N  0.70578069  0.61950343  0.52499957    -0.44200
C1165       C  0.22423580  0.63226671  0.39144146    -0.00600
C1166       C  0.24909660  0.63258609  0.43195414    -0.12500
C1167       C  0.29497369  0.62943253  0.43180635     0.01700
C1168       C  0.31721990  0.62486520  0.39057522    -0.00700
C1169       C  0.29279008  0.62541977  0.34999535    -0.12400
C1170       C  0.24725242  0.62940999  0.34987494     0.01500
H1171       H  0.23278223  0.63545025  0.46415369     0.14500
H1172       H  0.30948843  0.62294561  0.31785183     0.14500
C1173       C  0.22582791  0.63107316  0.30612030     0.36200
C1174       C  0.31845765  0.63290689  0.47404652     0.36100
N1175       N  0.20911551  0.63251858  0.27083853    -0.44200
N1176       N  0.33686448  0.63625728  0.50794240    -0.44200
C1177       C  0.96575953  0.63465240  0.11228661    -0.00600
C1178       C  0.94234128  0.61635505  0.13258533    -0.12500
C1179       C  0.95400327  0.60792028  0.17583057     0.01700
C1180       C  0.98983683  0.61791219  0.20007906    -0.00700
C1181       C  0.01255739  0.63648587  0.17995063    -0.12400
C1182       C  0.00087614  0.64489785  0.13694815     0.01500
H1183       H  0.91601698  0.60789093  0.11377014     0.14500
H1184       H  0.03905658  0.64499713  0.19839885     0.14500
C1185       C  0.02510768  0.66446152  0.11939807     0.36200
C1186       C  0.92984886  0.58829549  0.19319461     0.36100
N1187       N  0.04450970  0.68013651  0.10529231    -0.44200
N1188       N  0.91036698  0.57244290  0.20639520    -0.44200
C1189       C  0.99583266  0.62245820  0.70722454    -0.00600
C1190       C  0.03162937  0.61103297  0.68678059    -0.12500
C1191       C  0.04543232  0.61641749  0.64232981     0.01700
C1192       C  0.02368638  0.63374644  0.61749622    -0.00700
C1193       C  0.99028451  0.64625178  0.63912953    -0.12400
C1194       C  0.97622940  0.64084701  0.68314756     0.01500
H1195       H  0.04794123  0.59722576  0.70490067     0.14500
H1196       H  0.97332516  0.65966354  0.62040538     0.14500
C1197       C  0.94182907  0.65477858  0.70237662     0.36200
C1198       C  0.07953337  0.60274402  0.62182667     0.36100
N1199       N  0.91433356  0.66620674  0.71719607    -0.44200
N1200       N  0.10684742  0.59175901  0.60539990    -0.44200
C1201       C  0.98494019  0.37083075  0.29219633    -0.00600
C1202       C  0.02269639  0.38132776  0.27319050    -0.12500
C1203       C  0.03945349  0.37450358  0.23121550     0.01700
C1204       C  0.01852961  0.35658239  0.20674603    -0.00700
C1205       C  0.97951441  0.34685108  0.22439182    -0.12400
C1206       C  0.96238143  0.35388278  0.26633259     0.01500
H1207       H  0.03989166  0.39488356  0.29157217     0.14500
H1208       H  0.96205036  0.33369035  0.20516319     0.14500
C1209       C  0.92183475  0.34322537  0.28133707     0.36200
C1210       C  0.07699976  0.38703599  0.21351080     0.36100
N1211       N  0.88895890  0.33460155  0.29209179    -0.44200
N1212       N  0.10689626  0.39721669  0.19931698    -0.44200
C1213       C  0.98706273  0.35874712  0.71128965    -0.00600
C1214       C  0.97259959  0.37803606  0.73511917    -0.12500
C1215       C  0.98700320  0.38223369  0.77944872     0.01700
C1216       C  0.01487736  0.36629800  0.80168114    -0.00700
C1217       C  0.02866278  0.34665908  0.77815081    -0.12400
C1218       C  0.01554161  0.34298776  0.73293601     0.01500
H1219       H  0.95281310  0.39084461  0.71775937     0.14500
H1220       H  0.04965068  0.33424196  0.79502237     0.14500
C1221       C  0.03235251  0.32323853  0.70902398     0.36200
C1222       C  0.97580890  0.40406858  0.79973263     0.36100
N1223       N  0.04595383  0.30743164  0.68987671    -0.44200
N1224       N  0.96724681  0.42176621  0.81529831    -0.44200
C1225       C  0.98610718  0.47194838  0.40283054    -0.00600
C1226       C  0.94580468  0.48387020  0.39817372    -0.12500
C1227       C  0.94412829  0.50668957  0.38173164     0.01700
C1228       C  0.98354594  0.51841375  0.37033188    -0.00700
C1229       C  0.02293230  0.50550597  0.37011675    -0.12400
C1230       C  0.02460083  0.48273910  0.38616430     0.01500
H1231       H  0.91539941  0.47557980  0.40890358     0.14500
H1232       H  0.05360714  0.51368184  0.35990208     0.14500
C1233       C  0.06704116  0.47173111  0.38828138     0.36200
C1234       C  0.90171627  0.51762076  0.37800661     0.36100
N1235       N  0.10125393  0.46308811  0.38981750    -0.44200
N1236       N  0.86747386  0.52610305  0.37449208    -0.44200
C1237       C  0.76773982  0.36605348  0.50881486    -0.00600
C1238       C  0.73946869  0.35934116  0.47314102    -0.12500
C1239       C  0.69385948  0.36334309  0.47532352     0.01700
C1240       C  0.67569729  0.37427292  0.51380086    -0.00700
C1241       C  0.70383217  0.38111344  0.54914512    -0.12400
C1242       C  0.74931024  0.37748626  0.54679038     0.01500
H1243       H  0.75297403  0.35080795  0.44359912     0.14500
H1244       H  0.69025612  0.38985694  0.57844528     0.14500
C1245       C  0.77610148  0.38721474  0.58269193     0.36200
C1246       C  0.66621671  0.35525263  0.43851678     0.36100
N1247       N  0.79674181  0.39545129  0.61163764    -0.44200
N1248       N  0.64393933  0.34875121  0.40913202    -0.44200
C1249       C  0.26627384  0.37064190  0.51481764    -0.00600
C1250       C  0.24338434  0.36414966  0.47494404    -0.12500
C1251       C  0.19836348  0.36896277  0.46900028     0.01700
C1252       C  0.17535245  0.38103187  0.50290193    -0.00700
C1253       C  0.19829853  0.38764747  0.54254528    -0.12400
C1254       C  0.24299236  0.38255392  0.54886263     0.01500
H1255       H  0.26071616  0.35504180  0.44836533     0.14500
H1256       H  0.18098492  0.39675393  0.56916526     0.14500
C1257       C  0.26413495  0.39065823  0.58992780     0.36200
C1258       C  0.17604051  0.36003902  0.42928112     0.36100
N1259       N  0.28039946  0.39733719  0.62306487    -0.44200
N1260       N  0.15799884  0.35269847  0.39768570    -0.44200
C1261       C  0.52462189  0.36357892  0.22668059    -0.00600
C1262       C  0.48621230  0.35336851  0.24474142    -0.12500
C1263       C  0.46928895  0.35988622  0.28712936     0.01700
C1264       C  0.49116400  0.37698639  0.31324966    -0.00700
C1265       C  0.52921909  0.38745168  0.29471718    -0.12400
C1266       C  0.54586602  0.38107120  0.25218790     0.01500
H1267       H  0.46891111  0.34019474  0.22540006     0.14500
H1268       H  0.54647309  0.40075986  0.31374294     0.14500
C1269       C  0.58363845  0.39361676  0.23513553     0.36200
C1270       C  0.42996474  0.34819864  0.30259405     0.36100
N1271       N  0.61377175  0.40390362  0.22179095    -0.44200
N1272       N  0.39825094  0.33853116  0.31361507    -0.44200
C1273       C  0.50380918  0.37550505  0.82197651    -0.00600
C1274       C  0.51930604  0.35524979  0.80164009    -0.12500
C1275       C  0.50650815  0.34914388  0.75732567     0.01700
C1276       C  0.47750301  0.36335069  0.73239369    -0.00700
C1277       C  0.46050597  0.38299954  0.75327794    -0.12400
C1278       C  0.47365588  0.38931562  0.79731696     0.01500
H1279       H  0.54143449  0.34412704  0.82041011     0.14500
H1280       H  0.43961208  0.39446698  0.73378463     0.14500
C1281       C  0.45862077  0.41115486  0.81445661     0.36200
C1282       C  0.52381091  0.32828607  0.73778261     0.36100
N1283       N  0.44668961  0.42884392  0.82740058    -0.44200
N1284       N  0.53743577  0.31152305  0.72212516    -0.44200
C1285       C  0.50304768  0.52719928  0.44325113    -0.00600
C1286       C  0.50449763  0.50999422  0.40935378    -0.12500
C1287       C  0.51001198  0.48653175  0.42023574     0.01700
C1288       C  0.51465263  0.47967859  0.46598420    -0.00700
C1289       C  0.51528540  0.49704063  0.49964410    -0.12400
C1290       C  0.50981858  0.52045597  0.48877397     0.01500
H1291       H  0.50086843  0.51491186  0.37398354     0.14500
H1292       H  0.51912279  0.49220007  0.53504427     0.14500
C1293       C  0.51330804  0.53726894  0.52475616     0.36200
C1294       C  0.50831305  0.46979420  0.38404718     0.36100
N1295       N  0.51647331  0.55074055  0.55356263    -0.44200
N1296       N  0.50686892  0.45637653  0.35501892    -0.44200
C1297       C  0.65218004  0.23323244  0.08836689    -0.00600
C1298       C  0.67856722  0.25315988  0.09023762    -0.12500
C1299       C  0.66052637  0.27508723  0.08347655     0.01700
C1300       C  0.61497211  0.27744711  0.07347069    -0.00700
C1301       C  0.58861399  0.25741963  0.07158057    -0.12400
C1302       C  0.60660628  0.23552820  0.07938755     0.01500
H1303       H  0.71363652  0.25156123  0.09676372     0.14500
H1304       H  0.55370949  0.25885337  0.06408602     0.14500
C1305       C  0.57788231  0.21563915  0.07598260     0.36200
C1306       C  0.69018540  0.29467329  0.08525280     0.36100
N1307       N  0.55473307  0.19975072  0.07325310    -0.44200
N1308       N  0.71413407  0.31027897  0.08685732    -0.44200
C1309       C  0.93684046  0.12752610  0.10064368    -0.00600
C1310       C  0.96113352  0.12782507  0.14125044    -0.12500
C1311       C  0.00686267  0.13134967  0.14142291     0.01700
C1312       C  0.03002101  0.13445678  0.09985459    -0.00700
C1313       C  0.00537419  0.13512224  0.05933878    -0.12400
C1314       C  0.95937506  0.13194596  0.05940321     0.01500
H1315       H  0.94426012  0.12517523  0.17330779     0.14500
H1316       H  0.02208595  0.13781336  0.02723303     0.14500
C1317       C  0.93617555  0.13465997  0.01686372     0.36200
C1318       C  0.02850236  0.13182799  0.18526009     0.36100
N1319       N  0.91803884  0.13722223  0.98259339    -0.44200
N1320       N  0.04535077  0.13210870  0.22060583    -0.44200
C1321       C  0.52842744  0.12524208  0.08828198    -0.00600
C1322       C  0.50558439  0.12533096  0.12990875    -0.12500
C1323       C  0.46004583  0.12045998  0.13185653     0.01700
C1324       C  0.43633384  0.11564498  0.09144320    -0.00700
C1325       C  0.45927142  0.11515227  0.05027051    -0.12400
C1326       C  0.50436789  0.11975253  0.04813451     0.01500
H1327       H  0.52326855  0.12920712  0.16109758     0.14500
H1328       H  0.44161534  0.11125124  0.01902592     0.14500
C1329       C  0.52403983  0.11899593  0.00350778     0.36200
C1330       C  0.43846432  0.12145420  0.17542071     0.36100
N1331       N  0.53914564  0.11812605  0.96750199    -0.44200
N1332       N  0.42153608  0.12230951  0.21054950    -0.44200
C1333       C  0.16441398  0.22413229  0.06178844    -0.00600
C1334       C  0.16696886  0.24019175  0.09754750    -0.12500
C1335       C  0.14540068  0.26166536  0.09507432     0.01700
C1336       C  0.11953048  0.26748925  0.05641248    -0.00700
C1337       C  0.11792589  0.25158755  0.02040958    -0.12400
C1338       C  0.14038284  0.23052579  0.02230604     0.01500
H1339       H  0.18528295  0.23582659  0.12803098     0.14500
H1340       H  0.09994414  0.25589397  0.98967625     0.14500
C1341       C  0.13970279  0.21633881  0.98199723     0.36200
C1342       C  0.14992744  0.27700984  0.13335134     0.36100
N1343       N  0.13950181  0.20502836  0.94963974    -0.44200
N1344       N  0.15413764  0.28907403  0.16435787    -0.44200
C1345       C  0.84366789  0.76639560  0.95755545    -0.00600
C1346       C  0.88128754  0.76406343  0.93003263    -0.12500
C1347       C  0.90252240  0.74283339  0.92421341     0.01700
C1348       C  0.88642706  0.72265079  0.94613168    -0.00700
C1349       C  0.84880492  0.72496704  0.97384166    -0.12400
C1350       C  0.82754743  0.74627862  0.97969335     0.01500
H1351       H  0.89481187  0.77906113  0.91288338     0.14500
H1352       H  0.83536677  0.70994294  0.99096473     0.14500
C1353       C  0.78899225  0.74661268  0.00834900     0.36200
C1354       C  0.94088647  0.74272491  0.89533733     0.36100
N1355       N  0.75812076  0.74673103  0.03135505    -0.44200
N1356       N  0.97156880  0.74292089  0.87207793    -0.44200
C1357       C  0.74937836  0.97628630  0.03723418    -0.00600
C1358       C  0.75102673  0.99358567  0.00367140    -0.12500
C1359       C  0.75542258  0.01697476  0.01505665     0.01700
C1360       C  0.75924213  0.02366243  0.06105032    -0.00700
C1361       C  0.75672649  0.00639686  0.09473974    -0.12400
C1362       C  0.75215285  0.98294287  0.08327655     0.01500
H1363       H  0.74883697  0.98876579  0.96812398     0.14500
H1364       H  0.75869132  0.01124651  0.13026882     0.14500
C1365       C  0.75301978  0.96599659  0.11919733     0.36200
C1366       C  0.75305604  0.03380220  0.97896024     0.36100
N1367       N  0.75401765  0.95237214  0.14791178    -0.44200
N1368       N  0.75061907  0.04728472  0.95008958    -0.44200
C1369       C  0.47995279  0.86322809  0.99818524    -0.00600
C1370       C  0.49978966  0.86553863  0.95524999    -0.12500
C1371       C  0.54478229  0.87036077  0.95056775     0.01700
C1372       C  0.57208392  0.87239909  0.98948906    -0.00700
C1373       C  0.55262560  0.86998198  0.03251690    -0.12400
C1374       C  0.50724509  0.86560908  0.03729730     0.01500
H1375       H  0.47986013  0.86436132  0.92468647     0.14500
H1376       H  0.57301401  0.87137310  0.06276266     0.14500
C1377       C  0.49019380  0.86394479  0.08294935     0.36200
C1378       C  0.56111348  0.87432948  0.90515351     0.36100
N1379       N  0.47687684  0.86281068  0.11969749    -0.44200
N1380       N  0.57371695  0.87765363  0.86864604    -0.44200
C1381       C  0.07083072  0.87362749  0.99710281    -0.00600
C1382       C  0.05086233  0.86452660  0.03628878    -0.12500
C1383       C  0.00587432  0.85866798  0.03671866     0.01700
C1384       C  0.97973236  0.86193105  0.99729165    -0.00700
C1385       C  0.99972252  0.87091640  0.95815800    -0.12400
C1386       C  0.04447095  0.87696116  0.95779139     0.01500
H1387       H  0.07065753  0.86142639  0.06641149     0.14500
H1388       H  0.97985820  0.87417248  0.92813312     0.14500
C1389       C  0.06173710  0.88751053  0.91701622     0.36200
C1390       C  0.98783240  0.84867982  0.07767658     0.36100
N1391       N  0.07540154  0.89601753  0.88433536    -0.44200
N1392       N  0.97364451  0.84061639  0.11055868    -0.44200
C1393       C  0.34239970  0.77578870  0.91121915    -0.00600
C1394       C  0.38608351  0.77579140  0.89515022    -0.12500
C1395       C  0.40633511  0.75541818  0.88088564     0.01700
C1396       C  0.38276971  0.73433785  0.88179356    -0.00700
C1397       C  0.33826684  0.73450040  0.89469695    -0.12400
C1398       C  0.31806101  0.75483992  0.90956580     0.01500
H1399       H  0.40527511  0.79163513  0.89535172     0.14500
H1400       H  0.31989184  0.71839817  0.89582038     0.14500
C1401       C  0.27249556  0.75346885  0.92332968     0.36200
C1402       C  0.45160514  0.75659813  0.86593717     0.36100
N1403       N  0.23597917  0.75219199  0.93437012    -0.44200
N1404       N  0.48781806  0.75773240  0.85383300    -0.44200
C1405       C  0.25346976  0.96466496  0.10523301    -0.00600
C1406       C  0.21314895  0.97491340  0.11567212    -0.12500
C1407       C  0.21124214  0.99841019  0.12700586     0.01700
C1408       C  0.25019912  0.01227211  0.12707426    -0.00700
C1409       C  0.29083535  0.00116167  0.12373037    -0.12400
C1410       C  0.29277486  0.97755261  0.11348083     0.01500
H1411       H  0.18279285  0.96514406  0.11137476     0.14500
H1412       H  0.32108898  0.01122195  0.12523590     0.14500
C1413       C  0.33574913  0.96721738  0.10974993     0.36200
C1414       C  0.16843812  0.00812382  0.13587399     0.36100
N1415       N  0.37026959  0.95900280  0.10711543    -0.44200
N1416       N  0.13404511  0.01576530  0.14305369    -0.44200
C1417       C  0.85247674  0.23129942  0.56517039    -0.00600
C1418       C  0.89040378  0.23291496  0.53778775    -0.12500
C1419       C  0.91385265  0.25362365  0.53237893     0.01700
C1420       C  0.89932150  0.27400769  0.55411128    -0.00700
C1421       C  0.86196925  0.27232328  0.58238874    -0.12400
C1422       C  0.83883076  0.25140830  0.58825841     0.01500
H1423       H  0.90245649  0.21774903  0.52047648     0.14500
H1424       H  0.85017476  0.28752411  0.59974301     0.14500
C1425       C  0.80092539  0.25140989  0.61774953     0.36200
C1426       C  0.95294112  0.25295630  0.50445607     0.36100
N1427       N  0.77063967  0.25145479  0.64155180    -0.44200
N1428       N  0.98428296  0.25226311  0.48218828    -0.44200
C1429       C  0.73095752  0.16987230  0.29168802    -0.00600
C1430       C  0.76946554  0.17979376  0.31088700    -0.12500
C1431       C  0.77733020  0.17947267  0.35813942     0.01700
C1432       C  0.74646378  0.16882620  0.38736375    -0.00700
C1433       C  0.70597967  0.16132236  0.36827540    -0.12400
C1434       C  0.69814250  0.16158733  0.32142766     0.01500
H1435       H  0.79463054  0.18682794  0.28862673     0.14500
H1436       H  0.68087739  0.15357218  0.38965817     0.14500
C1437       C  0.65798268  0.15081345  0.30535703     0.36200
C1438       C  0.81706947  0.19020736  0.37532963     0.36100
N1439       N  0.62557925  0.14188338  0.29389157    -0.44200
N1440       N  0.84875285  0.19917807  0.38871069    -0.44200
C1441       C  0.76902541  0.11255927  0.79173794    -0.00600
C1442       C  0.79820931  0.10022282  0.81954894    -0.12500
C1443       C  0.79152774  0.09849136  0.86681951     0.01700
C1444       C  0.75562727  0.10992732  0.88761966    -0.00700
C1445       C  0.72695068  0.12249276  0.85959720    -0.12400
C1446       C  0.73311493  0.12383302  0.81250564     0.01500
H1447       H  0.82530886  0.09107523  0.80404156     0.14500
H1448       H  0.69964452  0.13169192  0.87459306     0.14500
C1449       C  0.70240694  0.13753216  0.78666674     0.36200
C1450       C  0.82031672  0.08346565  0.89200774     0.36100
N1451       N  0.67742308  0.14853973  0.76651328    -0.44200
N1452       N  0.84349748  0.07091930  0.91089033    -0.44200
C1453       C  0.47578532  0.13422905  0.59686097    -0.00600
C1454       C  0.49550252  0.12182408  0.63241172    -0.12500
C1455       C  0.54054271  0.11605248  0.63116530     0.01700
C1456       C  0.56687147  0.12281342  0.59359804    -0.00700
C1457       C  0.54654549  0.13571301  0.55869124    -0.12400
C1458       C  0.50205512  0.14153003  0.56020199     0.01500
H1459       H  0.47524343  0.11581896  0.66039191     0.14500
H1460       H  0.56550204  0.14180803  0.52987946     0.14500
C1461       C  0.48448914  0.15575444  0.52419599     0.36200
C1462       C  0.55775621  0.10260468  0.66828024     0.36100
N1463       N  0.47078941  0.16740730  0.49560504    -0.44200
N1464       N  0.57036642  0.09170885  0.69850623    -0.44200
C1465       C  0.06759044  0.12912611  0.57179592    -0.00600
C1466       C  0.04207048  0.10901375  0.57408804    -0.12500
C1467       C  0.99611693  0.11007698  0.57345069     0.01700
C1468       C  0.97504300  0.13157629  0.56887290    -0.00700
C1469       C  0.00068412  0.15158940  0.56349560    -0.12400
C1470       C  0.04677112  0.15057892  0.56572178     0.01500
H1471       H  0.05808157  0.09252130  0.57864285     0.14500
H1472       H  0.98467380  0.16814057  0.56002589     0.14500
C1473       C  0.07187613  0.17175191  0.56237359     0.36200
C1474       C  0.97164825  0.08881568  0.57839224     0.36100
N1475       N  0.09177404  0.18879194  0.55975523    -0.44200
N1476       N  0.95301229  0.07148921  0.58259853    -0.44200
C1477       C  0.39643568  0.27532860  0.58020343    -0.00600
C1478       C  0.42287941  0.25552114  0.58220802    -0.12500
C1479       C  0.40425228  0.23359106  0.59023183     0.01700
C1480       C  0.35814569  0.23107472  0.59501453    -0.00700
C1481       C  0.33192685  0.25085849  0.59414867    -0.12400
C1482       C  0.35054379  0.27281222  0.58775679     0.01500
H1483       H  0.45814868  0.25714027  0.57702059     0.14500
H1484       H  0.29649079  0.24910082  0.59795117     0.14500
C1485       C  0.32129172  0.29231582  0.58714665     0.36200
C1486       C  0.43282293  0.21383741  0.59112253     0.36100
N1487       N  0.29799360  0.30800030  0.58698595    -0.44200
N1488       N  0.45579532  0.19803269  0.59202617    -0.44200
C1489       C  0.26545767  0.10008871  0.38869084    -0.00600
C1490       C  0.22262648  0.10346810  0.37123345    -0.12500
C1491       C  0.21319430  0.10197716  0.32490752     0.01700
C1492       C  0.24721359  0.09715517  0.29373078    -0.00700
C1493       C  0.28997113  0.09299206  0.31122773    -0.12400
C1494       C  0.29929843  0.09444684  0.35802237     0.01500
H1495       H  0.19585651  0.10784411  0.39386375     0.14500
H1496       H  0.31673573  0.08906947  0.28827190     0.14500
C1497       C  0.34362706  0.08989878  0.37340258     0.36200
C1498       C  0.16808989  0.10581609  0.31105142     0.36100
N1499       N  0.37916609  0.08622661  0.38571022    -0.44200
N1500       N  0.13190361  0.10892580  0.30022762    -0.44200
C1501       C  0.25402859  0.16347391  0.79225166    -0.00600
C1502       C  0.29166826  0.16496963  0.81976927    -0.12500
C1503       C  0.28847157  0.16412137  0.86727734     0.01700
C1504       C  0.24690212  0.16057935  0.88856915    -0.00700
C1505       C  0.20902344  0.16160467  0.86141182    -0.12400
C1506       C  0.21199848  0.16349375  0.81404681     0.01500
H1507       H  0.32397557  0.16614351  0.80422422     0.14500
H1508       H  0.17678149  0.15988305  0.87695151     0.14500
C1509       C  0.17081780  0.16494646  0.78937455     0.36200
C1510       C  0.32869437  0.16747267  0.89278146     0.36100
N1511       N  0.13760985  0.16617924  0.77007068    -0.44200
N1512       N  0.36142843  0.17072672  0.91210427    -0.44200
C1513       C  0.63763001  0.78188639  0.41001697    -0.00600
C1514       C  0.66286982  0.76292667  0.39649394    -0.12500
C1515       C  0.64283818  0.74173290  0.38464122     0.01700
C1516       C  0.59630950  0.73884935  0.38742382    -0.00700
C1517       C  0.57118335  0.75811756  0.39972127    -0.12400
C1518       C  0.59111919  0.77937363  0.41054904     0.01500
H1519       H  0.69848973  0.76462168  0.39546347     0.14500
H1520       H  0.53562764  0.75643984  0.40208446     0.14500
C1521       C  0.56298695  0.79792130  0.42504946     0.36200
C1522       C  0.67132201  0.72307646  0.37165501     0.36100
N1523       N  0.54063380  0.81282556  0.43677102    -0.44200
N1524       N  0.69433351  0.70823467  0.36103386    -0.44200
C1525       C  0.73037056  0.87394624  0.28542941    -0.00600
C1526       C  0.77106270  0.86593672  0.26918246    -0.12500
C1527       C  0.78608812  0.87128346  0.22550663     0.01700
C1528       C  0.75932624  0.88430080  0.19566990    -0.00700
C1529       C  0.71924014  0.89295900  0.21247528    -0.12400
C1530       C  0.70493642  0.88820367  0.25679300     0.01500
H1531       H  0.79183895  0.85551095  0.29094683     0.14500
H1532       H  0.69856012  0.90345452  0.19075364     0.14500
C1533       C  0.66497561  0.89899428  0.27218032     0.36200
C1534       C  0.82921494  0.86307886  0.21312048     0.36100
N1535       N  0.63315609  0.90786780  0.28448156    -0.44200
N1536       N  0.86415941  0.85662248  0.20435732    -0.44200
C1537       C  0.73696835  0.86583362  0.69717285    -0.00600
C1538       C  0.72227853  0.84491468  0.71590517    -0.12500
C1539       C  0.73585361  0.83801493  0.75951798     0.01700
C1540       C  0.76492705  0.85209356  0.78527746    -0.00700
C1541       C  0.78012461  0.87278529  0.76627717    -0.12400
C1542       C  0.76607704  0.87989502  0.72313249     0.01500
H1543       H  0.70081594  0.83371996  0.69612364     0.14500
H1544       H  0.80088779  0.88419276  0.78641372     0.14500
C1545       C  0.77985020  0.90248753  0.70789832     0.36200
C1546       C  0.72010040  0.81618773  0.77681140     0.36100
N1547       N  0.79078142  0.92074244  0.69654258    -0.44200
N1548       N  0.70758533  0.79863035  0.79049071    -0.44200
C1549       C  0.73325974  0.97320337  0.59754955    -0.00600
C1550       C  0.77427954  0.98330465  0.60723607    -0.12500
C1551       C  0.77760370  0.00687233  0.61772873     0.01700
C1552       C  0.73947561  0.02090011  0.61818713    -0.00700
C1553       C  0.69815731  0.01011026  0.61526818    -0.12400
C1554       C  0.69474602  0.98643153  0.60560695     0.01500
H1555       H  0.80405363  0.97335253  0.60283049     0.14500
H1556       H  0.66858142  0.02045167  0.61670641     0.14500
C1557       C  0.65113253  0.97637922  0.60240890     0.36200
C1558       C  0.82096569  0.01656110  0.62538135     0.36100
N1559       N  0.61604029  0.96846873  0.60034532    -0.44200
N1560       N  0.85586810  0.02407918  0.63184495    -0.44200
C1561       C  0.00729946  0.87543935  0.49307217    -0.00600
C1562       C  0.98979158  0.88732516  0.45553007    -0.12500
C1563       C  0.94511904  0.89366821  0.45402430     0.01700
C1564       C  0.91661514  0.88774819  0.49025676    -0.00700
C1565       C  0.93438506  0.87620382  0.52802000    -0.12400
C1566       C  0.97899349  0.87010621  0.52979001     0.01500
H1567       H  0.01132097  0.89216148  0.42769815     0.14500
H1568       H  0.91298488  0.87120954  0.55585820     0.14500
C1569       C  0.99420914  0.85753755  0.56910903     0.36200
C1570       C  0.92987335  0.90710368  0.41585875     0.36100
N1571       N  0.00596943  0.84747286  0.60080489    -0.44200
N1572       N  0.91774315  0.91806620  0.38549266    -0.44200
C1573       C  0.41546086  0.88170977  0.47860712    -0.00600
C1574       C  0.43586221  0.88243933  0.52160711    -0.12500
C1575       C  0.48144292  0.87954813  0.52688992     0.01700
C1576       C  0.50839353  0.87582683  0.48830834    -0.00700
C1577       C  0.48794517  0.87575113  0.44517861    -0.12400
C1578       C  0.44237851  0.87866225  0.44000405     0.01500
H1579       H  0.41595521  0.88471314  0.55177599     0.14500
H1580       H  0.50753401  0.87328717  0.41486684     0.14500
C1581       C  0.42467204  0.87883373  0.39439805     0.36200
C1582       C  0.49867896  0.88035361  0.57265702     0.36100
N1583       N  0.41077557  0.87900127  0.35772909    -0.44200
N1584       N  0.51147474  0.88102237  0.60972650    -0.44200
C1585       C  0.13374270  0.76839025  0.46224664    -0.00600
C1586       C  0.15912080  0.74860246  0.47043989    -0.12500
C1587       C  0.14138224  0.72626659  0.46481295     0.01700
C1588       C  0.09692234  0.72314023  0.45082970    -0.00700
C1589       C  0.07141759  0.74290511  0.44330069    -0.12400
C1590       C  0.08900373  0.76519666  0.44917354     0.01500
H1591       H  0.19341188  0.75053890  0.48038004     0.14500
H1592       H  0.03715693  0.74096263  0.43322330     0.14500
C1593       C  0.05954482  0.78438560  0.44309423     0.36200
C1594       C  0.17038248  0.70695292  0.47162045     0.36100
N1595       N  0.03586030  0.79974007  0.43841338    -0.44200
N1596       N  0.19369714  0.69149729  0.47697114    -0.44200
C1597       C  0.25713896  0.86449291  0.20752493    -0.00600
C1598       C  0.27070344  0.84353017  0.22666933    -0.12500
C1599       C  0.25480781  0.83625653  0.26924313     0.01700
C1600       C  0.22392133  0.84979267  0.29301759    -0.00700
C1601       C  0.21077054  0.87080820  0.27398472    -0.12400
C1602       C  0.22775179  0.87845073  0.23237620     0.01500
H1603       H  0.29260406  0.83245664  0.20772202     0.14500
H1604       H  0.18880963  0.88191371  0.29279061     0.14500
C1605       C  0.21609297  0.90125170  0.21696807     0.36200
C1606       C  0.26972672  0.81453436  0.28727575     0.36100
N1607       N  0.20712139  0.91963675  0.20506404    -0.44200
N1608       N  0.28167169  0.79713231  0.30181132    -0.44200
C1609       C  0.24349501  0.87628204  0.69310176    -0.00600
C1610       C  0.22560236  0.85707880  0.71571799    -0.12500
C1611       C  0.23753148  0.85195919  0.76069482     0.01700
C1612       C  0.26841408  0.86599897  0.78411483    -0.00700
C1613       C  0.28733427  0.88480436  0.76126159    -0.12400
C1614       C  0.27486526  0.89019946  0.71643810     0.01500
H1615       H  0.20215656  0.84598895  0.69820742     0.14500
H1616       H  0.30953833  0.89627181  0.77953955     0.14500
C1617       C  0.29193323  0.91125495  0.69688277     0.36200
C1618       C  0.21690039  0.83240342  0.78264380     0.36100
N1619       N  0.30538493  0.92834947  0.68191383    -0.44200
N1620       N  0.20035574  0.81680546  0.80043096    -0.44200
C1621       C  0.24771404  0.97703451  0.53240591    -0.00600
C1622       C  0.25408250  0.99407462  0.49909764    -0.12500
C1623       C  0.25075302  0.01750999  0.50973504     0.01700
C1624       C  0.24130209  0.02428411  0.55473706    -0.00700
C1625       C  0.23527830  0.00718450  0.58809255    -0.12400
C1626       C  0.23742983  0.98374520  0.57710423     0.01500
H1627       H  0.26070752  0.98899441  0.46433006     0.14500
H1628       H  0.22763453  0.01217087  0.62266927     0.14500
C1629       C  0.22478685  0.96697488  0.61103250     0.36200
C1630       C  0.25796704  0.03412099  0.47392166     0.36100
N1631       N  0.21383618  0.95348968  0.63778254    -0.44200
N1632       N  0.26361766  0.04724399  0.44486205    -0.44200
loop_ 
_geom_bond_atom_site_label_1 
_geom_bond_atom_site_label_2 
_geom_bond_distance 
_geom_bond_site_symmetry_2 
_ccdc_geom_bond_type 
Zr1           O2   2.439       .  S
Zr1           O3   2.444       .  S
Zr1           O4   2.469       .  S
Zr1           O7   2.474       .  S
Zr1           O9   2.393       .  S
Zr1          O10   2.399       .  S
Zr1          O11   2.432       .  S
Zr1          O12   2.393       .  S
O2           H58   0.991       .  S
O2           H66   0.989       .  S
O3           C23   1.285       .  A
O4           C25   1.285       .  A
O5          Zr15   2.435       .  S
O5           C24   1.286       .  A
O6          Zr14   2.405       .  S
O6           C25   1.270       .  A
O7           C24   1.294       .  A
O8          Zr16   2.450       .  S
O8           C23   1.286       .  A
O9          Zr14   2.408       .  S
O9          Zr16   2.367       .  S
O10         Zr15   2.401       .  S
O10         Zr16   2.380       .  S
O10          H45   0.965       .  S
O11         Zr14   2.405       .  S
O11         Zr31   2.380       .  S
O11          H48   0.965       .  S
O12         Zr15   2.400       .  S
O12         Zr31   2.378       .  S
Zr13         O38   2.443       .  S
Zr13         O32   2.474       .  S
Zr13         O40   2.429       .  S
Zr13         O28   2.441       .  S
Zr13         O19   2.406       .  S
Zr13         O20   2.429       .  S
Zr13         O21   2.378       .  S
Zr13         O22   2.384       .  S
Zr14         O33   2.435       .  S
Zr14         O26   2.435       .  S
Zr14         O27   2.434       .  S
Zr14         O20   2.395       .  S
Zr14         O21   2.393       .  S
Zr15         O17   2.438       .  S
Zr15         O39   2.436       .  S
Zr15         O41   2.474       .  S
Zr15         O19   2.371       .  S
Zr15         O22   2.390       .  S
Zr16         O42   2.436       .  S
Zr16         O43   2.437       .  S
Zr16         O18   2.438       .  S
Zr16         O19   2.395       .  S
Zr16         O20   2.412       .  S
O17          H54   0.990       .  S
O18          H49   0.990       .  S
O18          H63   0.990       .  S
O20          H46   0.964       .  S
O21         Zr31   2.389       .  S
O22         Zr31   2.398       .  S
O22          H47   0.965       .  S
C23        C1585   1.505       .  S
C24        C1561   1.492       .  S
C25        C1600   1.485       .  S
O26          H62   0.990       .  S
O27          C29   1.283       .  A
O28          C29   1.283       .  A
C29        C1573   1.494       .  S
O30         Zr31   2.437       .  S
O30          H59   0.990       .  S
Zr31         O34   2.437       .  S
Zr31         O35   2.438       .  S
Zr31         O36   2.381       .  S
O32          C37   1.290       .  A
O33          H50   0.990       .  S
O33          H65   0.990       .  S
O34          H51   0.990       .  S
O35          H55   0.990       .  S
O35          H64   0.990       .  S
O36          C37   1.273       .  A
C37        C1621   1.475       .  S
O38          H57   0.990       .  S
O38          H61   0.991       .  S
O39          H53   0.990       .  S
O39          H60   0.989       .  S
O40          C44   1.282       .  A
O41          C44   1.293       .  A
O42          H52   0.991       .  S
O43          H56   0.990       .  S
C44        C1609   1.493       .  S
Zr67         O68   2.439       .  S
Zr67         O69   2.433       .  S
Zr67         O70   2.461       .  S
Zr67         O73   2.446       .  S
Zr67         O75   2.386       .  S
Zr67         O76   2.395       .  S
Zr67         O77   2.419       .  S
Zr67         O78   2.392       .  S
O68         H124   0.990       .  S
O68         H132   0.990       .  S
O69          C89   1.283       .  A
O70          C91   1.284       .  A
O71         Zr81   2.448       .  S
O71          C90   1.288       .  A
O72         Zr80   2.398       .  S
O72          C91   1.272       .  A
O73          C90   1.289       .  A
O74         Zr82   2.465       .  S
O74          C89   1.289       .  A
O75         Zr80   2.408       .  S
O75         Zr82   2.367       .  S
O76         Zr81   2.393       .  S
O76         Zr82   2.368       .  S
O76         H111   0.966       .  S
O77         Zr80   2.403       .  S
O77         Zr97   2.389       .  S
O77         H114   0.966       .  S
O78         Zr81   2.399       .  S
O78         Zr97   2.375       .  S
Zr79        O104   2.443       .  S
Zr79         O98   2.511       .  S
Zr79        O106   2.404       .  S
Zr79         O94   2.457       .  S
Zr79         O85   2.430       .  S
Zr79         O86   2.425       .  S
Zr79         O87   2.371       .  S
Zr79         O88   2.382       .  S
Zr80         O99   2.435       .  S
Zr80         O92   2.437       .  S
Zr80         O93   2.437       .  S
Zr80         O86   2.389       .  S
Zr80         O87   2.392       .  S
Zr81         O83   2.433       .  S
Zr81        O105   2.439       .  S
Zr81        O107   2.474       .  S
Zr81         O85   2.388       .  S
Zr81         O88   2.387       .  S
Zr82        O108   2.435       .  S
Zr82        O109   2.435       .  S
Zr82         O84   2.437       .  S
Zr82         O85   2.416       .  S
Zr82         O86   2.409       .  S
O83         H120   0.990       .  S
O84         H115   0.991       .  S
O84         H129   0.990       .  S
O86         H112   0.964       .  S
O87         Zr97   2.388       .  S
O88         Zr97   2.396       .  S
O88         H113   0.965       .  S
C89        C1513   1.499       .  S
C90        C1576   1.501       .  S
C91        C1525   1.490       .  S
O92         H128   0.991       .  S
O93          C95   1.283       .  A
O94          C95   1.288       .  A
C95        C1564   1.493       .  S
O96         Zr97   2.440       .  S
O96         H125   0.990       .  S
Zr97        O100   2.440       .  S
Zr97        O101   2.436       .  S
Zr97        O102   2.391       .  S
O98         C103   1.298       .  A
O99         H116   0.990       .  S
O99         H131   0.990       .  S
O100        H117   0.990       .  S
O101        H121   0.990       .  S
O101        H130   0.989       .  S
O102        C103   1.276       .  A
C103       C1549   1.497       .  S
O104        H123   0.989       .  S
O104        H127   0.990       .  S
O105        H119   0.990       .  S
O105        H126   0.989       .  S
O106        C110   1.277       .  A
O107        C110   1.292       .  A
O108        H118   0.990       .  S
O109        H122   0.990       .  S
C110       C1537   1.488       .  S
Zr133       O134   2.443       .  S
Zr133       O135   2.467       .  S
Zr133       O136   2.400       .  S
Zr133       O139   2.437       .  S
Zr133       O141   2.367       .  S
Zr133       O142   2.375       .  S
Zr133       O143   2.423       .  S
Zr133       O144   2.405       .  S
O134        H190   0.991       .  S
O134        H198   0.990       .  S
O135        C155   1.288       .  A
O136        C157   1.278       .  A
O137       Zr147   2.411       .  S
O137        C156   1.280       .  A
O138       Zr146   2.477       .  S
O138        C157   1.292       .  A
O139        C156   1.283       .  A
O140       Zr148   2.395       .  S
O140        C155   1.276       .  A
O141       Zr146   2.386       .  S
O141       Zr148   2.389       .  S
O142       Zr147   2.392       .  S
O142       Zr148   2.382       .  S
O142        H177   0.967       .  S
O143       Zr146   2.394       .  S
O143       Zr163   2.393       .  S
O143        H180   0.963       .  S
O144       Zr147   2.366       .  S
O144       Zr163   2.393       .  S
Zr145       O170   2.440       .  S
Zr145       O164   2.455       .  S
Zr145       O172   2.496       .  S
Zr145       O160   2.474       .  S
Zr145       O151   2.403       .  S
Zr145       O152   2.422       .  S
Zr145       O153   2.392       .  S
Zr145       O154   2.392       .  S
Zr146       O165   2.436       .  S
Zr146       O158   2.434       .  S
Zr146       O159   2.416       .  S
Zr146       O152   2.422       .  S
Zr146       O153   2.404       .  S
Zr147       O149   2.437       .  S
Zr147       O171   2.436       .  S
Zr147       O173   2.373       .  S
Zr147       O151   2.392       .  S
Zr147       O154   2.400       .  S
Zr148       O174   2.436       .  S
Zr148       O175   2.436       .  S
Zr148       O150   2.438       .  S
Zr148       O151   2.376       .  S
Zr148       O152   2.385       .  S
O149        H186   0.989       .  S
O150        H181   0.991       .  S
O150        H195   0.990       .  S
O152        H178   0.964       .  S
O153       Zr163   2.374       .  S
O154       Zr163   2.369       .  S
O154        H179   0.965       .  S
C155       C1624   1.482       .  S
C156       C1465   1.468       .  S
C157       C1489   1.494       .  S
O158        H194   0.990       .  S
O159        C161   1.283       .  A
O160        C161   1.291       .  A
C161       C1453   1.480       .  S
O162       Zr163   2.434       .  S
O162        H191   0.990       .  S
Zr163       O166   2.436       .  S
Zr163       O167   2.440       .  S
Zr163       O168   2.421       .  S
O164        C169   1.286       .  A
O165        H182   0.990       .  S
O165        H197   0.990       .  S
O166        H183   0.989       .  S
O167        H187   0.991       .  S
O167        H196   0.989       .  S
O168        C169   1.281       .  A
C169       C1480   1.486       .  S
O170        H189   0.990       .  S
O170        H193   0.991       .  S
O171        H185   0.990       .  S
O171        H192   0.990       .  S
O172        C176   1.298       .  A
O173        C176   1.272       .  A
O174        H184   0.991       .  S
O175        H188   0.991       .  S
C176       C1501   1.499       .  S
Zr199       O200   2.439       .  S
Zr199       O201   2.420       .  S
Zr199       O202   2.494       .  S
Zr199       O205   2.448       .  S
Zr199       O207   2.378       .  S
Zr199       O208   2.404       .  S
Zr199       O209   2.400       .  S
Zr199       O210   2.397       .  S
O200        H256   0.990       .  S
O200        H264   0.990       .  S
O201        C221   1.282       .  A
O202        C223   1.295       .  A
O203       Zr213   2.418       .  S
O203        C222   1.283       .  A
O204       Zr212   2.388       .  S
O204        C223   1.277       .  A
O205        C222   1.288       .  A
O206       Zr214   2.459       .  S
O206        C221   1.287       .  A
O207       Zr212   2.393       .  S
O207       Zr214   2.370       .  S
O208       Zr213   2.398       .  S
O208       Zr214   2.374       .  S
O208        H243   0.966       .  S
O209       Zr212   2.392       .  S
O209       Zr229   2.387       .  S
O209        H246   0.966       .  S
O210       Zr213   2.399       .  S
O210       Zr229   2.372       .  S
Zr211       O236   2.440       .  S
Zr211       O230   2.509       .  S
Zr211       O238   2.440       .  S
Zr211       O226   2.479       .  S
Zr211       O217   2.420       .  S
Zr211       O218   2.431       .  S
Zr211       O219   2.380       .  S
Zr211       O220   2.387       .  S
Zr212       O231   2.436       .  S
Zr212       O224   2.436       .  S
Zr212       O225   2.405       .  S
Zr212       O218   2.382       .  S
Zr212       O219   2.391       .  S
Zr213       O215   2.437       .  S
Zr213       O237   2.436       .  S
Zr213       O239   2.469       .  S
Zr213       O217   2.375       .  S
Zr213       O220   2.384       .  S
Zr214       O240   2.438       .  S
Zr214       O241   2.437       .  S
Zr214       O216   2.439       .  S
Zr214       O217   2.406       .  S
Zr214       O218   2.408       .  S
O215        H252   0.990       .  S
O216        H247   0.990       .  S
O216        H261   0.990       .  S
O218        H244   0.964       .  S
O219       Zr229   2.385       .  S
O220       Zr229   2.396       .  S
O220        H245   0.966       .  S
C221       C1417   1.505       .  S
C222       C1468   1.472       .  S
C223       C1432   1.503       .  S
O224        H260   0.990       .  S
O225        C227   1.281       .  A
O226        C227   1.291       .  A
C227       C1456   1.503       .  S
O228       Zr229   2.435       .  S
O228        H257   0.991       .  S
Zr229       O232   2.436       .  S
Zr229       O233   2.431       .  S
Zr229       O234   2.385       .  S
O230        C235   1.296       .  A
O231        H248   0.990       .  S
O231        H263   0.991       .  S
O232        H249   0.990       .  S
O233        H253   0.990       .  S
O233        H262   0.989       .  S
O234        C235   1.275       .  A
C235       C1552   1.491       .  S
O236        H255   0.991       .  S
O236        H259   0.990       .  S
O237        H251   0.990       .  S
O237        H258   0.990       .  S
O238        C242   1.284       .  A
O239        C242   1.290       .  A
O240        H250   0.990       .  S
O241        H254   0.990       .  S
C242       C1441   1.494       .  S
Zr265       O266   2.442       .  S
Zr265       O267   2.494       .  S
Zr265       O268   2.412       .  S
Zr265       O271   2.456       .  S
Zr265       O273   2.378       .  S
Zr265       O274   2.385   1_554  S
Zr265       O275   2.430       .  S
Zr265       O276   2.411       .  S
O266        H322   0.989       .  S
O266        H330   0.992       .  S
O267        C287   1.294       .  A
O268        C289   1.279       .  A
O269       Zr279   2.404       .  S
O269        C288   1.278       .  A
O270       Zr278   2.475       .  S
O270        C289   1.292       .  A
O271        C288   1.288   1_554  A
O272       Zr280   2.390   1_554  S
O272        C287   1.275       .  A
O273       Zr278   2.394       .  S
O273       Zr280   2.388   1_554  S
O274       Zr279   2.397       .  S
O274       Zr280   2.383       .  S
O274        H309   0.965       .  S
O275       Zr278   2.395       .  S
O275       Zr295   2.397       .  S
O275        H312   0.964       .  S
O276       Zr279   2.377   1_554  S
O276       Zr295   2.399       .  S
Zr277       O302   2.439       .  S
Zr277       O296   2.433       .  S
Zr277       O304   2.483       .  S
Zr277       O292   2.453       .  S
Zr277       O283   2.403       .  S
Zr277       O284   2.411       .  S
Zr277       O285   2.396   1_556  S
Zr277       O286   2.384       .  S
Zr278       O297   2.436       .  S
Zr278       O290   2.435       .  S
Zr278       O291   2.436       .  S
Zr278       O284   2.416   1_554  S
Zr278       O285   2.401       .  S
Zr279       O281   2.437       .  S
Zr279       O303   2.436       .  S
Zr279       O305   2.391       .  S
Zr279       O283   2.389       .  S
Zr279       O286   2.396       .  S
Zr280       O306   2.437       .  S
Zr280       O307   2.436       .  S
Zr280       O282   2.437       .  S
Zr280       O283   2.388       .  S
Zr280       O284   2.372       .  S
O281        H318   0.991       .  S
O282        H313   0.991   1_556  S
O282        H327   0.989   1_556  S
O284        H310   0.963       .  S
O285       Zr295   2.376       .  S
O286       Zr295   2.367   1_556  S
O286        H311   0.966       .  S
C287       C1405   1.496       .  S
C288       C1381   1.489       .  S
C289       C1597   1.487       .  S
O290        H326   0.989       .  S
O291        C293   1.286       .  A
O292        C293   1.291   1_556  A
C293       C1369   1.500   1_554  S
O294       Zr295   2.435       .  S
O294        H323   0.990       .  S
Zr295       O298   2.436       .  S
Zr295       O299   2.437   1_554  S
Zr295       O300   2.442   1_554  S
O296        C301   1.284       .  A
O297        H314   0.990       .  S
O297        H329   0.990       .  S
O298        H315   0.989       .  S
O299        H319   0.990       .  S
O299        H328   0.990       .  S
O300        C301   1.285       .  A
C301       C1393   1.498       .  S
O302        H321   0.990       .  S
O302        H325   0.990       .  S
O303        H317   0.989       .  S
O303        H324   0.990       .  S
O304        C308   1.292       .  A
O305        C308   1.275       .  A
O306        H316   0.990       .  S
O307        H320   0.991       .  S
C308       C1612   1.483       .  S
Zr331       O332   2.443       .  S
Zr331       O333   2.493       .  S
Zr331       O334   2.435       .  S
Zr331       O337   2.454       .  S
Zr331       O339   2.374       .  S
Zr331       O340   2.388   1_554  S
Zr331       O341   2.428       .  S
Zr331       O342   2.418   1_554  S
O332        H388   0.991       .  S
O332        H396   0.990       .  S
O333        C353   1.293       .  A
O334        C355   1.284       .  A
O335       Zr345   2.417       .  S
O335        C354   1.281       .  A
O336       Zr344   2.451       .  S
O336        C355   1.288       .  A
O337        C354   1.288   1_554  A
O338       Zr346   2.388       .  S
O338        C353   1.275   1_556  A
O339       Zr344   2.395       .  S
O339       Zr346   2.393   1_554  S
O340       Zr345   2.399       .  S
O340       Zr346   2.385       .  S
O340        H375   0.966       .  S
O341       Zr344   2.391       .  S
O341       Zr361   2.389       .  S
O341        H378   0.963       .  S
O342       Zr345   2.376       .  S
O342       Zr361   2.400   1_556  S
Zr343       O368   2.439       .  S
Zr343       O362   2.449       .  S
Zr343       O370   2.483       .  S
Zr343       O358   2.471       .  S
Zr343       O349   2.405       .  S
Zr343       O350   2.413       .  S
Zr343       O351   2.384   1_556  S
Zr343       O352   2.393       .  S
Zr344       O363   2.437       .  S
Zr344       O356   2.434       .  S
Zr344       O357   2.415       .  S
Zr344       O350   2.411   1_554  S
Zr344       O351   2.393       .  S
Zr345       O347   2.437       .  S
Zr345       O369   2.437       .  S
Zr345       O371   2.400       .  S
Zr345       O349   2.390       .  S
Zr345       O352   2.409       .  S
Zr346       O372   2.439       .  S
Zr346       O373   2.435       .  S
Zr346       O348   2.438       .  S
Zr346       O349   2.382       .  S
Zr346       O350   2.377       .  S
O347        H384   0.990       .  S
O348        H379   0.990       .  S
O348        H393   0.990   1_556  S
O350        H376   0.964       .  S
O351       Zr361   2.372       .  S
O352       Zr361   2.363   1_556  S
O352        H377   0.965       .  S
C353       C1357   1.492       .  S
C354       C1372   1.492       .  S
C355       C1528   1.495       .  S
O356        H392   0.991       .  S
O357        C359   1.282   1_554  A
O358        C359   1.293       .  A
C359       C1384   1.485       .  S
O360       Zr361   2.439       .  S
O360        H389   0.989       .  S
Zr361       O364   2.437       .  S
Zr361       O365   2.438   1_554  S
Zr361       O366   2.445   1_554  S
O362        C367   1.288       .  A
O363        H380   0.989       .  S
O363        H395   0.991       .  S
O364        H381   0.990       .  S
O365        H385   0.989       .  S
O365        H394   0.991       .  S
O366        C367   1.286       .  A
C367       C1345   1.513       .  S
O368        H387   0.990       .  S
O368        H391   0.991       .  S
O369        H383   0.991       .  S
O369        H390   0.990       .  S
O370        C374   1.291       .  A
O371        C374   1.270       .  A
O372        H382   0.990       .  S
O373        H386   0.991       .  S
C374       C1540   1.483       .  S
Zr397       O398   2.443       .  S
Zr397       O399   2.511       .  S
Zr397       O400   2.424       .  S
Zr397       O403   2.448       .  S
Zr397       O405   2.371       .  S
Zr397       O406   2.382       .  S
Zr397       O407   2.437       .  S
Zr397       O408   2.420       .  S
O398        H454   0.990       .  S
O398        H462   0.990       .  S
O399        C419   1.297       .  A
O400        C421   1.281       .  A
O401       Zr411   2.419       .  S
O401        C420   1.282       .  A
O402       Zr410   2.450       .  S
O402        C421   1.288       .  A
O403        C420   1.284       .  A
O404       Zr412   2.376       .  S
O404        C419   1.272       .  A
O405       Zr410   2.382       .  S
O405       Zr412   2.389       .  S
O406       Zr411   2.387       .  S
O406       Zr412   2.388       .  S
O406        H441   0.966       .  S
O407       Zr410   2.390       .  S
O407       Zr427   2.410       .  S
O407        H444   0.963       .  S
O408       Zr411   2.374       .  S
O408       Zr427   2.416       .  S
Zr409       O434   2.438   1_554  S
Zr409       O428   2.421       .  S
Zr409       O436   2.481   1_554  S
Zr409       O424   2.481       .  S
Zr409       O415   2.404       .  S
Zr409       O416   2.400       .  S
Zr409       O417   2.384       .  S
Zr409       O418   2.392       .  S
Zr410       O429   2.437       .  S
Zr410       O422   2.433       .  S
Zr410       O423   2.408       .  S
Zr410       O416   2.408       .  S
Zr410       O417   2.395       .  S
Zr411       O413   2.432   1_554  S
Zr411       O435   2.438   1_554  S
Zr411       O437   2.400   1_554  S
Zr411       O415   2.388       .  S
Zr411       O418   2.408       .  S
Zr412       O438   2.436   1_554  S
Zr412       O439   2.435   1_554  S
Zr412       O414   2.439       .  S
Zr412       O415   2.387       .  S
Zr412       O416   2.367       .  S
O413        H450   0.991       .  S
O414        H445   0.990       .  S
O414        H459   0.990       .  S
O416        H442   0.964       .  S
O417       Zr427   2.361       .  S
O418       Zr427   2.367       .  S
O418        H443   0.965       .  S
C419       C1408   1.497       .  S
C420       C1324   1.486       .  S
C421       C1492   1.498       .  S
O422        H458   0.990       .  S
O423        C425   1.281       .  A
O424        C425   1.296       .  A
C425       C1312   1.498       .  S
O426       Zr427   2.439       .  S
O426        H455   0.991       .  S
Zr427       O430   2.438       .  S
Zr427       O431   2.438       .  S
Zr427       O432   2.476       .  S
O428        C433   1.282       .  A
O429        H446   0.989       .  S
O429        H461   0.991       .  S
O430        H447   0.989       .  S
O431        H451   0.990       .  S
O431        H460   0.990       .  S
O432        C433   1.292       .  A
C433       C1333   1.510       .  S
O434        H453   0.990       .  S
O434        H457   0.991       .  S
O435        H449   0.990       .  S
O435        H456   0.990       .  S
O436        C440   1.295       .  A
O437        C440   1.278       .  A
O438        H448   0.990   1_556  S
O439        H452   0.990       .  S
C440       C1504   1.496       .  S
Zr463       O464   2.439       .  S
Zr463       O465   2.452       .  S
Zr463       O466   2.492       .  S
Zr463       O469   2.476       .  S
Zr463       O471   2.389       .  S
Zr463       O472   2.400       .  S
Zr463       O473   2.420       .  S
Zr463       O474   2.397       .  S
O464        H520   0.990       .  S
O464        H528   0.989       .  S
O465        C485   1.286       .  A
O466        C487   1.295       .  A
O467       Zr477   2.412       .  S
O467        C486   1.281       .  A
O468       Zr476   2.406       .  S
O468        C487   1.279       .  A
O469        C486   1.293       .  A
O470       Zr478   2.432       .  S
O470        C485   1.283       .  A
O471       Zr476   2.405       .  S
O471       Zr478   2.377       .  S
O472       Zr477   2.389       .  S
O472       Zr478   2.371       .  S
O472        H507   0.965       .  S
O473       Zr476   2.402       .  S
O473       Zr493   2.392       .  S
O473        H510   0.966       .  S
O474       Zr477   2.396       .  S
O474       Zr493   2.370       .  S
Zr475       O500   2.439       .  S
Zr475       O494   2.494       .  S
Zr475       O502   2.441   1_554  S
Zr475       O490   2.466       .  S
Zr475       O481   2.416       .  S
Zr475       O482   2.429       .  S
Zr475       O483   2.385       .  S
Zr475       O484   2.383       .  S
Zr476       O495   2.435       .  S
Zr476       O488   2.436       .  S
Zr476       O489   2.429       .  S
Zr476       O482   2.387       .  S
Zr476       O483   2.401       .  S
Zr477       O479   2.435   1_554  S
Zr477       O501   2.440   1_554  S
Zr477       O503   2.458   1_554  S
Zr477       O481   2.371       .  S
Zr477       O484   2.379       .  S
Zr478       O504   2.434   1_554  S
Zr478       O505   2.434   1_554  S
Zr478       O480   2.437       .  S
Zr478       O481   2.403       .  S
Zr478       O482   2.395       .  S
O479        H516   0.989   1_556  S
O480        H511   0.991       .  S
O480        H525   0.990       .  S
O482        H508   0.963       .  S
O483       Zr493   2.393       .  S
O484       Zr493   2.393       .  S
O484        H509   0.965       .  S
C485       C1297   1.487       .  S
C486       C1321   1.496       .  S
C487       C1429   1.495       .  S
O488        H524   0.990       .  S
O489        C491   1.284       .  A
O490        C491   1.288       .  A
C491       C1309   1.492       .  S
O492       Zr493   2.436       .  S
O492        H521   0.991       .  S
Zr493       O496   2.434       .  S
Zr493       O497   2.436       .  S
Zr493       O498   2.397       .  S
O494        C499   1.295       .  A
O495        H512   0.990       .  S
O495        H527   0.990       .  S
O496        H513   0.989       .  S
O497        H517   0.990       .  S
O497        H526   0.990       .  S
O498        C499   1.276       .  A
C499       C1360   1.494       .  S
O500        H519   0.990   1_554  S
O500        H523   0.990       .  S
O501        H515   0.990       .  S
O501        H522   0.990       .  S
O502        C506   1.285       .  A
O503        C506   1.291       .  A
O504        H514   0.990       .  S
O505        H518   0.991       .  S
C506       C1444   1.500       .  S
Zr529       O530   2.444       .  S
Zr529       O531   2.516       .  S
Zr529       O532   2.427       .  S
Zr529       O535   2.438       .  S
Zr529       O537   2.371       .  S
Zr529       O538   2.376       .  S
Zr529       O539   2.432       .  S
Zr529       O540   2.425       .  S
O530        H586   0.990       .  S
O530        H594   0.991       .  S
O531        C551   1.298       .  A
O532        C553   1.282       .  A
O533       Zr543   2.433       .  S
O533        C552   1.284       .  A
O534       Zr542   2.473       .  S
O534        C553   1.291       .  A
O535        C552   1.283       .  A
O536       Zr544   2.368       .  S
O536        C551   1.271       .  A
O537       Zr542   2.397       .  S
O537       Zr544   2.401       .  S
O538       Zr543   2.392       .  S
O538       Zr544   2.382       .  S
O538        H573   0.965       .  S
O539       Zr542   2.390       .  S
O539       Zr559   2.393       .  S
O539        H576   0.962       .  S
O540       Zr543   2.370       .  S
O540       Zr559   2.408       .  S
Zr541       O566   2.439       .  S
Zr541       O560   2.436       .  S
Zr541       O568   2.487       .  S
Zr541       O556   2.484       .  S
Zr541       O547   2.402       .  S
Zr541       O548   2.406       .  S
Zr541       O549   2.395       .  S
Zr541       O550   2.390       .  S
Zr542       O561   2.437       .  S
Zr542       O554   2.435       .  S
Zr542       O555   2.422       .  S
Zr542       O548   2.414       .  S
Zr542       O549   2.411       .  S
Zr543       O545   2.436       .  S
Zr543       O567   2.438       .  S
Zr543       O569   2.391       .  S
Zr543       O547   2.404       .  S
Zr543       O550   2.401       .  S
Zr544       O570   2.435       .  S
Zr544       O571   2.436       .  S
Zr544       O546   2.438       .  S
Zr544       O547   2.375       .  S
Zr544       O548   2.369       .  S
O545        H582   0.990       .  S
O546        H577   0.990       .  S
O546        H591   0.990       .  S
O548        H574   0.967       .  S
O549       Zr559   2.377       .  S
O550       Zr559   2.357       .  S
O550        H575   0.966       .  S
C551       C1288   1.499       .  S
C552       C1240   1.483       .  S
C553       C1264   1.498       .  S
O554        H590   0.990       .  S
O555        C557   1.282       .  A
O556        C557   1.295       .  A
C557       C1249   1.492       .  S
O558       Zr559   2.436       .  S
O558        H587   0.990       .  S
Zr559       O562   2.436       .  S
Zr559       O563   2.439       .  S
Zr559       O564   2.443       .  S
O560        C565   1.284       .  A
O561        H578   0.989       .  S
O561        H593   0.991       .  S
O562        H579   0.990       .  S
O563        H583   0.989       .  S
O563        H592   0.991       .  S
O564        C565   1.285       .  A
C565       C1477   1.495       .  S
O566        H585   0.990       .  S
O566        H589   0.990       .  S
O567        H581   0.990       .  S
O567        H588   0.989       .  S
O568        C572   1.294       .  A
O569        C572   1.277       .  A
O570        H580   0.990       .  S
O571        H584   0.990       .  S
C572       C1276   1.479       .  S
Zr595       O596   2.441       .  S
Zr595       O597   2.494       .  S
Zr595       O598   2.421       .  S
Zr595       O601   2.481       .  S
Zr595       O603   2.379   1_455  S
Zr595       O604   2.381       .  S
Zr595       O605   2.430   1_455  S
Zr595       O606   2.407       .  S
O596        H652   0.990       .  S
O596        H660   0.991       .  S
O597        C617   1.295   1_455  A
O598        C619   1.283   1_455  A
O599       Zr609   2.391       .  S
O599        C618   1.276       .  A
O600       Zr608   2.467       .  S
O600        C619   1.291       .  A
O601        C618   1.293       .  A
O602       Zr610   2.403       .  S
O602        C617   1.278       .  A
O603       Zr608   2.401       .  S
O603       Zr610   2.385       .  S
O604       Zr609   2.392       .  S
O604       Zr610   2.380   1_455  S
O604        H639   0.966       .  S
O605       Zr608   2.409       .  S
O605       Zr625   2.384   1_655  S
O605        H642   0.963       .  S
O606       Zr609   2.378       .  S
O606       Zr625   2.395       .  S
Zr607       O632   2.440       .  S
Zr607       O626   2.448       .  S
Zr607       O634   2.470       .  S
Zr607       O622   2.449       .  S
Zr607       O613   2.412       .  S
Zr607       O614   2.415       .  S
Zr607       O615   2.387       .  S
Zr607       O616   2.381       .  S
Zr608       O627   2.434       .  S
Zr608       O620   2.434       .  S
Zr608       O621   2.458       .  S
Zr608       O614   2.412       .  S
Zr608       O615   2.396       .  S
Zr609       O611   2.440       .  S
Zr609       O633   2.438       .  S
Zr609       O635   2.383       .  S
Zr609       O613   2.386   1_455  S
Zr609       O616   2.403   1_455  S
Zr610       O636   2.436       .  S
Zr610       O637   2.435       .  S
Zr610       O612   2.439       .  S
Zr610       O613   2.403       .  S
Zr610       O614   2.372       .  S
O611        H648   0.990       .  S
O612        H643   0.990       .  S
O612        H657   0.990       .  S
O614        H640   0.962       .  S
O615       Zr625   2.379   1_655  S
O616       Zr625   2.363   1_655  S
O616        H641   0.966       .  S
C617       C1225   1.504       .  S
C618       C1252   1.489       .  S
C619       C1201   1.493       .  S
O620        H656   0.991       .  S
O621        C623   1.291       .  A
O622        C623   1.289       .  A
C623       C1237   1.492       .  S
O624       Zr625   2.435       .  S
O624        H653   0.990       .  S
Zr625       O628   2.436   1_455  S
Zr625       O629   2.440       .  S
Zr625       O630   2.425   1_455  S
O626        C631   1.286       .  A
O627        H644   0.990       .  S
O627        H659   0.990       .  S
O628        H645   0.989       .  S
O629        H649   0.990       .  S
O629        H658   0.990       .  S
O630        C631   1.281       .  A
C631       C1420   1.505       .  S
O632        H651   0.990       .  S
O632        H655   0.991       .  S
O633        H647   0.990       .  S
O633        H654   0.990       .  S
O634        C638   1.288       .  A
O635        C638   1.273   1_455  A
O636        H646   0.990       .  S
O637        H650   0.990       .  S
C638       C1213   1.467       .  S
Zr661       O662   2.440       .  S
Zr661       O663   2.510       .  S
Zr661       O664   2.441       .  S
Zr661       O667   2.446       .  S
Zr661       O669   2.385   1_655  S
Zr661       O670   2.388       .  S
Zr661       O671   2.436   1_655  S
Zr661       O672   2.416       .  S
O662        H718   0.990       .  S
O662        H726   0.990       .  S
O663        C683   1.290       .  A
O664        C685   1.285   1_655  A
O665       Zr675   2.439       .  S
O665        C684   1.286       .  A
O666       Zr674   2.467       .  S
O666        C685   1.292       .  A
O667        C684   1.285       .  A
O668       Zr676   2.387       .  S
O668        C683   1.266   1_455  A
O669       Zr674   2.384       .  S
O669       Zr676   2.386       .  S
O670       Zr675   2.387       .  S
O670       Zr676   2.395   1_655  S
O670        H705   0.967       .  S
O671       Zr674   2.396       .  S
O671       Zr691   2.391   1_455  S
O671        H708   0.962   1_455  S
O672       Zr675   2.363       .  S
O672       Zr691   2.406       .  S
Zr673       O698   2.440       .  S
Zr673       O692   2.446       .  S
Zr673       O700   2.495       .  S
Zr673       O688   2.463       .  S
Zr673       O679   2.400       .  S
Zr673       O680   2.411       .  S
Zr673       O681   2.395       .  S
Zr673       O682   2.389       .  S
Zr674       O693   2.437       .  S
Zr674       O686   2.436       .  S
Zr674       O687   2.434       .  S
Zr674       O680   2.414       .  S
Zr674       O681   2.406       .  S
Zr675       O677   2.437       .  S
Zr675       O699   2.438       .  S
Zr675       O701   2.378       .  S
Zr675       O679   2.404   1_655  S
Zr675       O682   2.405   1_655  S
Zr676       O702   2.437       .  S
Zr676       O703   2.435       .  S
Zr676       O678   2.438       .  S
Zr676       O679   2.392       .  S
Zr676       O680   2.368       .  S
O677        H714   0.990       .  S
O678        H709   0.990       .  S
O678        H723   0.990       .  S
O680        H706   0.964       .  S
O681       Zr691   2.368   1_455  S
O682       Zr691   2.368   1_455  S
O682        H707   0.966       .  S
C683       C1228   1.507       .  S
C684       C1153   1.492       .  S
C685       C1180   1.496   1_455  S
O686        H722   0.990       .  S
O687        C689   1.285       .  A
O688        C689   1.292       .  A
C689       C1165   1.502       .  S
O690       Zr691   2.434       .  S
O690        H719   0.990       .  S
Zr691       O694   2.438   1_655  S
Zr691       O695   2.437       .  S
Zr691       O696   2.445   1_655  S
O692        C697   1.285       .  A
O693        H710   0.991       .  S
O693        H725   0.990       .  S
O694        H711   0.989       .  S
O695        H715   0.990       .  S
O695        H724   0.990       .  S
O696        C697   1.286       .  A
C697       C1588   1.503       .  S
O698        H717   0.990       .  S
O698        H721   0.990       .  S
O699        H713   0.990       .  S
O699        H720   0.990       .  S
O700        C704   1.294       .  A
O701        C704   1.274   1_655  A
O702        H712   0.991       .  S
O703        H716   0.991       .  S
C704       C1192   1.485       .  S
Zr727       O728   2.439       .  S
Zr727       O729   2.461       .  S
Zr727       O730   2.498       .  S
Zr727       O733   2.487       .  S
Zr727       O735   2.398       .  S
Zr727       O736   2.405       .  S
Zr727       O737   2.435       .  S
Zr727       O738   2.398       .  S
O728        H784   0.991       .  S
O728        H792   0.989       .  S
O729        C749   1.287       .  A
O730        C751   1.291       .  A
O731       Zr741   2.422       .  S
O731        C750   1.283       .  A
O732       Zr740   2.406       .  S
O732        C751   1.271       .  A
O733        C750   1.297       .  A
O734       Zr742   2.449       .  S
O734        C749   1.287       .  A
O735       Zr740   2.416       .  S
O735       Zr742   2.370       .  S
O736       Zr741   2.389       .  S
O736       Zr742   2.369       .  S
O736        H771   0.965       .  S
O737       Zr740   2.405       .  S
O737       Zr757   2.376       .  S
O737        H774   0.966       .  S
O738       Zr741   2.400       .  S
O738       Zr757   2.371       .  S
Zr739       O764   2.441       .  S
Zr739       O758   2.523       .  S
Zr739       O766   2.441       .  S
Zr739       O754   2.466       .  S
Zr739       O745   2.419       .  S
Zr739       O746   2.439       .  S
Zr739       O747   2.380       .  S
Zr739       O748   2.381       .  S
Zr740       O759   2.434       .  S
Zr740       O752   2.436       .  S
Zr740       O753   2.437       .  S
Zr740       O746   2.390       .  S
Zr740       O747   2.397       .  S
Zr741       O743   2.436       .  S
Zr741       O765   2.443       .  S
Zr741       O767   2.470       .  S
Zr741       O745   2.362       .  S
Zr741       O748   2.386       .  S
Zr742       O768   2.435       .  S
Zr742       O769   2.437       .  S
Zr742       O744   2.439       .  S
Zr742       O745   2.400       .  S
Zr742       O746   2.405       .  S
O743        H780   0.989       .  S
O744        H775   0.990       .  S
O744        H789   0.990       .  S
O746        H772   0.963       .  S
O747       Zr757   2.397       .  S
O748       Zr757   2.394       .  S
O748        H773   0.964       .  S
C749       C1516   1.507       .  S
C750       C1156   1.504       .  S
C751       C1129   1.502       .  S
O752        H788   0.991       .  S
O753        C755   1.285       .  A
O754        C755   1.288       .  A
C755       C1168   1.494       .  S
O756       Zr757   2.438       .  S
O756        H785   0.991       .  S
Zr757       O760   2.436       .  S
Zr757       O761   2.439       .  S
Zr757       O762   2.376       .  S
O758        C763   1.300       .  A
O759        H776   0.990       .  S
O759        H791   0.990       .  S
O760        H777   0.990       .  S
O761        H781   0.990       .  S
O761        H790   0.990       .  S
O762        C763   1.272       .  A
C763       C1285   1.498       .  S
O764        H783   0.989       .  S
O764        H787   0.990       .  S
O765        H779   0.990       .  S
O765        H786   0.990       .  S
O766        C770   1.285       .  A
O767        C770   1.292       .  A
O768        H778   0.990       .  S
O769        H782   0.991       .  S
C770       C1141   1.494       .  S
Zr793       O794   2.439       .  S
Zr793       O795   2.453       .  S
Zr793       O796   2.450       .  S
Zr793       O799   2.427       .  S
Zr793       O801   2.387       .  S
Zr793       O802   2.393   1_554  S
Zr793       O803   2.433       .  S
Zr793       O804   2.401       .  S
O794        H850   0.989       .  S
O794        H858   0.989       .  S
O795        C815   1.285       .  A
O796        C817   1.280       .  A
O797       Zr807   2.459       .  S
O797        C816   1.291   1_556  A
O798       Zr806   2.393   1_455  S
O798        C817   1.268       .  A
O799        C816   1.285       .  A
O800       Zr808   2.463   1_554  S
O800        C815   1.290       .  A
O801       Zr806   2.410   1_455  S
O801       Zr808   2.368   1_554  S
O802       Zr807   2.389       .  S
O802       Zr808   2.373       .  S
O802        H837   0.965       .  S
O803       Zr806   2.399   1_455  S
O803       Zr823   2.402       .  S
O803        H840   0.973       .  S
O804       Zr807   2.393   1_554  S
O804       Zr823   2.383       .  S
Zr805       O830   2.444       .  S
Zr805       O824   2.499       .  S
Zr805       O832   2.392       .  S
Zr805       O820   2.468       .  S
Zr805       O811   2.424   1_655  S
Zr805       O812   2.424   1_556  S
Zr805       O813   2.367   1_556  S
Zr805       O814   2.384   1_655  S
Zr806       O825   2.437       .  S
Zr806       O818   2.437       .  S
Zr806       O819   2.412       .  S
Zr806       O812   2.395       .  S
Zr806       O813   2.395       .  S
Zr807       O809   2.434       .  S
Zr807       O831   2.440       .  S
Zr807       O833   2.473       .  S
Zr807       O811   2.387       .  S
Zr807       O814   2.387       .  S
Zr808       O834   2.436       .  S
Zr808       O835   2.435   1_455  S
Zr808       O810   2.437   1_456  S
Zr808       O811   2.404       .  S
Zr808       O812   2.421   1_456  S
O809        H846   0.990       .  S
O810        H841   0.990       .  S
O810        H855   0.990       .  S
O812        H838   0.964   1_554  S
O813       Zr823   2.388   1_655  S
O814       Zr823   2.388   1_556  S
O814        H839   0.966       .  S
C815       C1336   1.511       .  S
C816       C1105   1.495       .  S
C817       C1204   1.484       .  S
O818        H854   0.990       .  S
O819        C821   1.278       .  A
O820        C821   1.288   1_556  A
C821       C1093   1.488       .  S
O822       Zr823   2.439       .  S
O822        H851   0.990       .  S
Zr823       O826   2.439       .  S
Zr823       O827   2.438       .  S
Zr823       O828   2.412   1_554  S
O824        C829   1.296   1_655  A
O825        H842   0.990       .  S
O825        H857   0.990       .  S
O826        H843   0.990   1_455  S
O827        H847   0.990   1_554  S
O827        H856   0.990       .  S
O828        C829   1.279       .  A
C829       C1120   1.508       .  S
O830        H849   0.990       .  S
O830        H853   0.991       .  S
O831        H845   0.990       .  S
O831        H852   0.990       .  S
O832        C836   1.277   1_655  A
O833        C836   1.292       .  A
O834        H844   0.991       .  S
O835        H848   0.990       .  S
C836       C1216   1.477       .  S
Zr859       O860   2.440       .  S
Zr859       O861   2.426       .  S
Zr859       O862   2.471       .  S
Zr859       O865   2.458       .  S
Zr859       O867   2.394       .  S
Zr859       O868   2.400       .  S
Zr859       O869   2.423       .  S
Zr859       O870   2.396       .  S
O860        H916   0.990       .  S
O860        H924   0.991       .  S
O861        C881   1.282       .  A
O862        C883   1.284       .  A
O863       Zr873   2.431       .  S
O863        C882   1.285   1_556  A
O864       Zr872   2.402       .  S
O864        C883   1.271       .  A
O865        C882   1.291       .  A
O866       Zr874   2.450       .  S
O866        C881   1.287       .  A
O867       Zr872   2.412       .  S
O867       Zr874   2.366       .  S
O868       Zr873   2.405   1_554  S
O868       Zr874   2.369       .  S
O868        H903   0.966   1_554  S
O869       Zr872   2.409       .  S
O869       Zr889   2.372       .  S
O869        H906   0.966       .  S
O870       Zr873   2.403   1_554  S
O870       Zr889   2.370       .  S
Zr871       O896   2.444       .  S
Zr871       O890   2.488       .  S
Zr871       O898   2.425       .  S
Zr871       O886   2.438   1_556  S
Zr871       O877   2.409       .  S
Zr871       O878   2.427   1_556  S
Zr871       O879   2.374   1_556  S
Zr871       O880   2.381       .  S
Zr872       O891   2.436       .  S
Zr872       O884   2.436       .  S
Zr872       O885   2.441       .  S
Zr872       O878   2.395       .  S
Zr872       O879   2.390       .  S
Zr873       O875   2.436       .  S
Zr873       O897   2.435       .  S
Zr873       O899   2.468       .  S
Zr873       O877   2.372       .  S
Zr873       O880   2.394       .  S
Zr874       O900   2.436   1_554  S
Zr874       O901   2.435   1_554  S
Zr874       O876   2.438       .  S
Zr874       O877   2.397   1_554  S
Zr874       O878   2.408       .  S
O875        H912   0.990       .  S
O876        H907   0.990       .  S
O876        H921   0.990       .  S
O878        H904   0.963       .  S
O879       Zr889   2.398       .  S
O880       Zr889   2.391   1_556  S
O880        H905   0.966       .  S
C881       C1300   1.495       .  S
C882       C1096   1.492       .  S
C883       C1261   1.494       .  S
O884        H920   0.991       .  S
O885        C887   1.284       .  A
O886        C887   1.283       .  A
C887       C1108   1.487       .  S
O888       Zr889   2.438       .  S
O888        H917   0.991       .  S
Zr889       O892   2.435       .  S
Zr889       O893   2.439       .  S
Zr889       O894   2.363       .  S
O890        C895   1.293       .  A
O891        H908   0.990       .  S
O891        H923   0.990       .  S
O892        H909   0.989       .  S
O893        H913   0.990       .  S
O893        H922   0.990       .  S
O894        C895   1.270   1_554  A
C895       C1081   1.481       .  S
O896        H915   0.991       .  S
O896        H919   0.990       .  S
O897        H911   0.990       .  S
O897        H918   0.989       .  S
O898        C902   1.281       .  A
O899        C902   1.291       .  A
O900        H910   0.990       .  S
O901        H914   0.990       .  S
C902       C1273   1.491       .  S
Zr925       O926   2.441   1_556  S
Zr925       O927   2.488       .  S
Zr925       O928   2.455   1_556  S
Zr925       O931   2.435       .  S
Zr925       O933   2.379       .  S
Zr925       O934   2.385       .  S
Zr925       O935   2.421       .  S
Zr925       O936   2.417       .  S
O926        H982   0.989       .  S
O926        H990   0.990       .  S
O927        C947   1.292       .  A
O928        C949   1.287       .  A
O929       Zr939   2.431       .  S
O929        C948   1.285       .  A
O930       Zr938   2.479   1_554  S
O930        C949   1.295       .  A
O931        C948   1.284       .  A
O932       Zr940   2.366       .  S
O932        C947   1.270       .  A
O933       Zr938   2.407       .  S
O933       Zr940   2.399       .  S
O934       Zr939   2.391       .  S
O934       Zr940   2.377       .  S
O934        H969   0.966       .  S
O935       Zr938   2.403       .  S
O935       Zr955   2.384       .  S
O935        H972   0.962   1_556  S
O936       Zr939   2.370       .  S
O936       Zr955   2.392       .  S
Zr937       O962   2.442       .  S
Zr937       O956   2.469       .  S
Zr937       O964   2.496       .  S
Zr937       O952   2.473       .  S
Zr937       O943   2.411       .  S
Zr937       O944   2.417       .  S
Zr937       O945   2.387       .  S
Zr937       O946   2.397       .  S
Zr938       O957   2.437   1_556  S
Zr938       O950   2.435   1_556  S
Zr938       O951   2.460       .  S
Zr938       O944   2.412       .  S
Zr938       O945   2.398       .  S
Zr939       O941   2.435       .  S
Zr939       O963   2.437       .  S
Zr939       O965   2.386       .  S
Zr939       O943   2.401       .  S
Zr939       O946   2.401       .  S
Zr940       O966   2.435       .  S
Zr940       O967   2.436       .  S
Zr940       O942   2.438       .  S
Zr940       O943   2.381       .  S
Zr940       O944   2.352       .  S
O941        H978   0.990       .  S
O942        H973   0.990       .  S
O942        H987   0.990       .  S
O944        H970   0.963       .  S
O945       Zr955   2.382       .  S
O946       Zr955   2.371       .  S
O946        H971   0.966       .  S
C947       C1084   1.484       .  S
C948       C1057   1.482       .  S
C949       C1132   1.507       .  S
O950        H986   0.990   1_554  S
O951        C953   1.290       .  A
O952        C953   1.293       .  A
C953       C1069   1.491       .  S
O954       Zr955   2.439       .  S
O954        H983   0.991       .  S
Zr955       O958   2.437       .  S
Zr955       O959   2.442       .  S
Zr955       O960   2.403       .  S
O956        C961   1.290       .  A
O957        H974   0.990       .  S
O957        H989   0.990       .  S
O958        H975   0.990       .  S
O959        H979   0.990       .  S
O959        H988   0.989       .  S
O960        C961   1.278       .  A
C961       C1396   1.486       .  S
O962        H981   0.990       .  S
O962        H985   0.991       .  S
O963        H977   0.990       .  S
O963        H984   0.991       .  S
O964        C968   1.295       .  A
O965        C968   1.275       .  A
O966        H976   0.989       .  S
O967        H980   0.990       .  S
C968       C1144   1.480       .  S
Zr991       O992   2.440   1_556  S
Zr991       O993   2.451       .  S
Zr991       O994   2.470   1_556  S
Zr991       O997   2.450       .  S
Zr991       O999   2.393       .  S
Zr991      O1000   2.396       .  S
Zr991      O1001   2.425       .  S
Zr991      O1002   2.399       .  S
O992       H1048   0.990       .  S
O992       H1056   0.990       .  S
O993       C1013   1.286       .  A
O994       C1015   1.286       .  A
O995      Zr1005   2.431       .  S
O995       C1014   1.285       .  A
O996      Zr1004   2.414   1_654  S
O996       C1015   1.275       .  A
O997       C1014   1.290       .  A
O998      Zr1006   2.446       .  S
O998       C1013   1.285       .  A
O999      Zr1004   2.416   1_655  S
O999      Zr1006   2.375       .  S
O1000     Zr1005   2.405       .  S
O1000     Zr1006   2.363       .  S
O1000      H1035   0.966       .  S
O1001     Zr1004   2.406   1_655  S
O1001     Zr1021   2.380       .  S
O1001      H1038   0.964   1_556  S
O1002     Zr1005   2.397       .  S
O1002     Zr1021   2.368       .  S
Zr1003     O1028   2.442       .  S
Zr1003     O1022   2.527       .  S
Zr1003     O1030   2.443       .  S
Zr1003     O1018   2.464       .  S
Zr1003     O1009   2.419   1_455  S
Zr1003     O1010   2.438       .  S
Zr1003     O1011   2.372       .  S
Zr1003     O1012   2.389   1_455  S
Zr1004     O1023   2.434   1_556  S
Zr1004     O1016   2.435   1_556  S
Zr1004     O1017   2.453       .  S
Zr1004     O1010   2.390       .  S
Zr1004     O1011   2.390       .  S
Zr1005     O1007   2.436       .  S
Zr1005     O1029   2.437       .  S
Zr1005     O1031   2.471       .  S
Zr1005     O1009   2.362       .  S
Zr1005     O1012   2.393       .  S
Zr1006     O1032   2.437       .  S
Zr1006     O1033   2.436   1_655  S
Zr1006     O1008   2.436   1_655  S
Zr1006     O1009   2.391       .  S
Zr1006     O1010   2.406   1_655  S
O1007      H1044   0.990       .  S
O1008      H1039   0.990       .  S
O1008      H1053   0.990       .  S
O1010      H1036   0.962       .  S
O1011     Zr1021   2.398   1_455  S
O1012     Zr1021   2.396       .  S
O1012      H1037   0.966       .  S
C1013      C1348   1.515       .  S
C1014      C1060   1.494       .  S
C1015      C1177   1.493       .  S
O1016      H1052   0.990       .  S
O1017      C1019   1.289       .  A
O1018      C1019   1.289       .  A
C1019      C1072   1.504       .  S
O1020     Zr1021   2.437   1_554  S
O1020      H1049   0.990       .  S
Zr1021     O1024   2.437       .  S
Zr1021     O1025   2.440       .  S
Zr1021     O1026   2.366       .  S
O1022      C1027   1.300   1_455  A
O1023      H1040   0.990       .  S
O1023      H1055   0.990       .  S
O1024      H1041   0.991       .  S
O1025      H1045   0.989       .  S
O1025      H1054   0.991       .  S
O1026      C1027   1.269       .  A
C1027      C1117   1.501   1_655  S
O1028      H1047   0.991       .  S
O1028      H1051   0.991       .  S
O1029      H1043   0.990       .  S
O1029      H1050   0.990       .  S
O1030      C1034   1.284   1_455  A
O1031      C1034   1.293       .  A
O1032      H1042   0.990       .  S
O1033      H1046   0.991       .  S
C1034      C1189   1.498       .  S
C1057      C1058   1.401       .  A
C1057      C1062   1.413       .  A
C1058      C1059   1.400       .  A
C1058      H1063   1.085       .  S
C1059      C1060   1.420       .  A
C1059      C1066   1.444       .  S
C1060      C1061   1.408       .  A
C1061      C1062   1.401       .  A
C1061      H1064   1.084       .  S
C1062      C1065   1.445       .  S
C1065      N1067   1.157   1_556  T
C1066      N1068   1.157       .  T
C1069      C1070   1.406       .  A
C1069      C1074   1.408       .  A
C1070      C1071   1.409       .  A
C1070      H1075   1.085       .  S
C1071      C1072   1.419       .  A
C1071      C1078   1.443       .  S
C1072      C1073   1.412       .  A
C1073      C1074   1.405       .  A
C1073      H1076   1.084       .  S
C1074      C1077   1.443       .  S
C1077      N1079   1.157       .  T
C1078      N1080   1.157       .  T
C1081      C1082   1.398       .  A
C1081      C1086   1.420   1_556  A
C1082      C1083   1.400       .  A
C1082      H1087   1.085       .  S
C1083      C1084   1.420       .  A
C1083      C1090   1.444       .  S
C1084      C1085   1.400   1_556  A
C1085      C1086   1.403       .  A
C1085      H1088   1.085       .  S
C1086      C1089   1.445       .  S
C1089      N1091   1.157       .  T
C1090      N1092   1.157       .  T
C1093      C1094   1.403   1_554  A
C1093      C1098   1.415       .  A
C1094      C1095   1.403       .  A
C1094      H1099   1.085       .  S
C1095      C1096   1.418   1_556  A
C1095      C1102   1.443       .  S
C1096      C1097   1.406       .  A
C1097      C1098   1.403       .  A
C1097      H1100   1.085       .  S
C1098      C1101   1.444       .  S
C1101      N1103   1.157       .  T
C1102      N1104   1.157       .  T
C1105      C1106   1.413       .  A
C1105      C1110   1.414   1_554  A
C1106      C1107   1.403       .  A
C1106      H1111   1.084       .  S
C1107      C1108   1.410       .  A
C1107      C1114   1.444       .  S
C1108      C1109   1.407   1_554  A
C1109      C1110   1.400       .  A
C1109      H1112   1.084       .  S
C1110      C1113   1.444       .  S
C1113      N1115   1.157       .  T
C1114      N1116   1.157       .  T
C1117      C1118   1.401       .  A
C1117      C1122   1.424   1_455  A
C1118      C1119   1.410       .  A
C1118      H1123   1.085       .  S
C1119      C1120   1.427       .  A
C1119      C1126   1.444       .  S
C1120      C1121   1.403   1_455  A
C1121      C1122   1.406       .  A
C1121      H1124   1.085       .  S
C1122      C1125   1.445       .  S
C1125      N1127   1.157       .  T
C1126      N1128   1.157       .  T
C1129      C1130   1.405       .  A
C1129      C1134   1.418       .  A
C1130      C1131   1.410       .  A
C1130      H1135   1.085       .  S
C1131      C1132   1.420       .  A
C1131      C1138   1.442       .  S
C1132      C1133   1.408       .  A
C1133      C1134   1.409       .  A
C1133      H1136   1.084       .  S
C1134      C1137   1.444       .  S
C1137      N1139   1.157       .  T
C1138      N1140   1.157       .  T
C1141      C1142   1.406       .  A
C1141      C1146   1.418       .  A
C1142      C1143   1.405       .  A
C1142      H1147   1.085       .  S
C1143      C1144   1.413       .  A
C1143      C1150   1.445       .  S
C1144      C1145   1.402       .  A
C1145      C1146   1.406       .  A
C1145      H1148   1.085       .  S
C1146      C1149   1.443       .  S
C1149      N1151   1.157       .  T
C1150      N1152   1.157       .  T
C1153      C1154   1.399       .  A
C1153      C1158   1.417       .  A
C1154      C1155   1.398       .  A
C1154      H1159   1.086       .  S
C1155      C1156   1.427       .  A
C1155      C1162   1.445       .  S
C1156      C1157   1.409       .  A
C1157      C1158   1.409       .  A
C1157      H1160   1.084       .  S
C1158      C1161   1.444       .  S
C1161      N1163   1.157       .  T
C1162      N1164   1.157       .  T
C1165      C1166   1.409       .  A
C1165      C1170   1.421       .  A
C1166      C1167   1.405       .  A
C1166      H1171   1.084       .  S
C1167      C1168   1.417       .  A
C1167      C1174   1.444       .  S
C1168      C1169   1.404       .  A
C1169      C1170   1.403       .  A
C1169      H1172   1.085       .  S
C1170      C1173   1.444       .  S
C1173      N1175   1.157       .  T
C1174      N1176   1.157       .  T
C1177      C1178   1.407       .  A
C1177      C1182   1.414   1_655  A
C1178      C1179   1.408       .  A
C1178      H1183   1.085       .  S
C1179      C1180   1.419       .  A
C1179      C1186   1.444       .  S
C1180      C1181   1.406   1_655  A
C1181      C1182   1.401       .  A
C1181      H1184   1.084       .  S
C1182      C1185   1.444       .  S
C1185      N1187   1.157       .  T
C1186      N1188   1.157       .  T
C1189      C1190   1.414   1_655  A
C1189      C1194   1.415       .  A
C1190      C1191   1.409       .  A
C1190      H1195   1.084       .  S
C1191      C1192   1.410       .  A
C1191      C1198   1.444       .  S
C1192      C1193   1.406   1_455  A
C1193      C1194   1.400       .  A
C1193      H1196   1.086       .  S
C1194      C1197   1.443       .  S
C1197      N1199   1.157       .  T
C1198      N1200   1.157       .  T
C1201      C1202   1.410   1_655  A
C1201      C1206   1.415       .  A
C1202      C1203   1.397       .  A
C1202      H1207   1.085       .  S
C1203      C1204   1.411       .  A
C1203      C1210   1.445       .  S
C1204      C1205   1.408   1_455  A
C1205      C1206   1.403       .  A
C1205      H1208   1.085       .  S
C1206      C1209   1.443       .  S
C1209      N1211   1.157       .  T
C1210      N1212   1.157       .  T
C1213      C1214   1.397       .  A
C1213      C1218   1.413   1_655  A
C1214      C1215   1.395       .  A
C1214      H1219   1.086       .  S
C1215      C1216   1.417   1_655  A
C1215      C1222   1.445       .  S
C1216      C1217   1.402       .  A
C1217      C1218   1.404       .  A
C1217      H1220   1.085       .  S
C1218      C1221   1.444       .  S
C1221      N1223   1.157       .  T
C1222      N1224   1.157       .  T
C1225      C1226   1.416       .  A
C1225      C1230   1.410   1_655  A
C1226      C1227   1.411       .  A
C1226      H1231   1.085       .  S
C1227      C1228   1.412       .  A
C1227      C1234   1.443       .  S
C1228      C1229   1.416   1_655  A
C1229      C1230   1.405       .  A
C1229      H1232   1.084       .  S
C1230      C1233   1.443       .  S
C1233      N1235   1.157       .  T
C1234      N1236   1.157       .  T
C1237      C1238   1.407       .  A
C1237      C1242   1.419       .  A
C1238      C1239   1.406       .  A
C1238      H1243   1.085       .  S
C1239      C1240   1.414       .  A
C1239      C1246   1.444       .  S
C1240      C1241   1.399       .  A
C1241      C1242   1.399       .  A
C1241      H1244   1.085       .  S
C1242      C1245   1.443       .  S
C1245      N1247   1.157       .  T
C1246      N1248   1.157       .  T
C1249      C1250   1.411       .  A
C1249      C1254   1.413       .  A
C1250      C1251   1.406       .  A
C1250      H1255   1.085       .  S
C1251      C1252   1.410       .  A
C1251      C1258   1.443       .  S
C1252      C1253   1.409       .  A
C1253      C1254   1.402       .  A
C1253      H1256   1.085       .  S
C1254      C1257   1.444       .  S
C1257      N1259   1.157       .  T
C1258      N1260   1.157       .  T
C1261      C1262   1.408       .  A
C1261      C1266   1.413       .  A
C1262      C1263   1.404       .  A
C1262      H1267   1.085       .  S
C1263      C1264   1.416       .  A
C1263      C1270   1.442       .  S
C1264      C1265   1.411       .  A
C1265      C1266   1.403       .  A
C1265      H1268   1.085       .  S
C1266      C1269   1.444       .  S
C1269      N1271   1.157       .  T
C1270      N1272   1.157       .  T
C1273      C1274   1.405       .  A
C1273      C1278   1.419       .  A
C1274      C1275   1.404       .  A
C1274      H1279   1.085       .  S
C1275      C1276   1.414       .  A
C1275      C1282   1.445       .  S
C1276      C1277   1.400       .  A
C1277      C1278   1.403       .  A
C1277      H1280   1.085       .  S
C1278      C1281   1.443       .  S
C1281      N1283   1.157       .  T
C1282      N1284   1.157       .  T
C1285      C1286   1.414       .  A
C1285      C1290   1.410       .  A
C1286      C1287   1.410       .  A
C1286      H1291   1.085       .  S
C1287      C1288   1.410       .  A
C1287      C1294   1.443       .  S
C1288      C1289   1.414       .  A
C1289      C1290   1.407       .  A
C1289      H1292   1.085       .  S
C1290      C1293   1.444       .  S
C1293      N1295   1.157       .  T
C1294      N1296   1.157       .  T
C1297      C1298   1.402       .  A
C1297      C1302   1.414       .  A
C1298      C1299   1.404       .  A
C1298      H1303   1.085       .  S
C1299      C1300   1.420       .  A
C1299      C1306   1.445       .  S
C1300      C1301   1.407       .  A
C1301      C1302   1.406       .  A
C1301      H1304   1.085       .  S
C1302      C1305   1.444       .  S
C1305      N1307   1.157       .  T
C1306      N1308   1.158       .  T
C1309      C1310   1.402       .  A
C1309      C1314   1.417       .  A
C1310      C1311   1.400   1_655  A
C1310      H1315   1.085       .  S
C1311      C1312   1.423       .  A
C1311      C1318   1.446       .  S
C1312      C1313   1.406       .  A
C1313      C1314   1.406   1_455  A
C1313      H1316   1.084       .  S
C1314      C1317   1.443       .  S
C1317      N1319   1.157   1_554  T
C1318      N1320   1.157       .  T
C1321      C1322   1.410       .  A
C1321      C1326   1.422       .  A
C1322      C1323   1.409       .  A
C1322      H1327   1.084       .  S
C1323      C1324   1.415       .  A
C1323      C1330   1.443       .  S
C1324      C1325   1.400       .  A
C1325      C1326   1.393       .  A
C1325      H1328   1.086       .  S
C1326      C1329   1.445       .  S
C1329      N1331   1.157   1_554  T
C1330      N1332   1.157       .  T
C1333      C1334   1.408       .  A
C1333      C1338   1.420       .  A
C1334      C1335   1.415       .  A
C1334      H1339   1.084       .  S
C1335      C1336   1.422       .  A
C1335      C1342   1.443       .  S
C1336      C1337   1.407       .  A
C1337      C1338   1.406       .  A
C1337      H1340   1.085   1_554  S
C1338      C1341   1.445   1_554  S
C1341      N1343   1.157       .  T
C1342      N1344   1.157       .  T
C1345      C1346   1.409       .  A
C1345      C1350   1.421       .  A
C1346      C1347   1.407       .  A
C1346      H1351   1.084       .  S
C1347      C1348   1.421       .  A
C1347      C1354   1.444       .  S
C1348      C1349   1.412       .  A
C1349      C1350   1.411       .  A
C1349      H1352   1.084       .  S
C1350      C1353   1.445   1_556  S
C1353      N1355   1.158       .  T
C1354      N1356   1.157       .  T
C1357      C1358   1.409       .  A
C1357      C1362   1.412       .  A
C1358      C1359   1.404   1_565  A
C1358      H1363   1.085   1_554  S
C1359      C1360   1.413       .  A
C1359      C1366   1.445   1_554  S
C1360      C1361   1.411       .  A
C1361      C1362   1.409   1_545  A
C1361      H1364   1.085       .  S
C1362      C1365   1.444       .  S
C1365      N1367   1.157       .  T
C1366      N1368   1.157       .  T
C1369      C1370   1.407       .  A
C1369      C1374   1.422   1_556  A
C1370      C1371   1.398       .  A
C1370      H1375   1.084       .  S
C1371      C1372   1.416       .  A
C1371      C1378   1.445       .  S
C1372      C1373   1.405   1_556  A
C1373      C1374   1.405       .  A
C1373      H1376   1.085       .  S
C1374      C1377   1.444       .  S
C1377      N1379   1.157       .  T
C1378      N1380   1.157       .  T
C1381      C1382   1.405   1_556  A
C1381      C1386   1.418       .  A
C1382      C1383   1.404       .  A
C1382      H1387   1.085       .  S
C1383      C1384   1.417   1_454  A
C1383      C1390   1.445   1_455  S
C1384      C1385   1.402       .  A
C1385      C1386   1.399   1_655  A
C1385      H1388   1.085       .  S
C1386      C1389   1.445       .  S
C1389      N1391   1.157       .  T
C1390      N1392   1.157       .  T
C1393      C1394   1.409       .  A
C1393      C1398   1.418       .  A
C1394      C1395   1.403       .  A
C1394      H1399   1.085       .  S
C1395      C1396   1.413       .  A
C1395      C1402   1.445       .  S
C1396      C1397   1.404       .  A
C1397      C1398   1.406       .  A
C1397      H1400   1.085       .  S
C1398      C1401   1.443       .  S
C1401      N1403   1.157       .  T
C1402      N1404   1.157       .  T
C1405      C1406   1.400       .  A
C1405      C1410   1.423       .  A
C1406      C1407   1.407       .  A
C1406      H1411   1.085       .  S
C1407      C1408   1.424   1_565  A
C1407      C1414   1.445   1_565  S
C1408      C1409   1.400       .  A
C1409      C1410   1.406   1_545  A
C1409      H1412   1.085       .  S
C1410      C1413   1.444       .  S
C1413      N1415   1.157       .  T
C1414      N1416   1.157       .  T
C1417      C1418   1.409       .  A
C1417      C1422   1.417       .  A
C1418      C1419   1.401       .  A
C1418      H1423   1.085       .  S
C1419      C1420   1.420       .  A
C1419      C1426   1.446       .  S
C1420      C1421   1.411       .  A
C1421      C1422   1.408       .  A
C1421      H1424   1.084       .  S
C1422      C1425   1.443       .  S
C1425      N1427   1.157       .  T
C1426      N1428   1.158       .  T
C1429      C1430   1.414       .  A
C1429      C1434   1.409       .  A
C1430      C1431   1.410       .  A
C1430      H1435   1.085       .  S
C1431      C1432   1.412       .  A
C1431      C1438   1.443       .  S
C1432      C1433   1.414       .  A
C1433      C1434   1.398       .  A
C1433      H1436   1.084       .  S
C1434      C1437   1.443       .  S
C1437      N1439   1.157       .  T
C1438      N1440   1.157       .  T
C1441      C1442   1.404       .  A
C1441      C1446   1.416       .  A
C1442      C1443   1.410       .  A
C1442      H1447   1.085       .  S
C1443      C1444   1.421       .  A
C1443      C1450   1.442       .  S
C1444      C1445   1.405       .  A
C1445      C1446   1.401       .  A
C1445      H1448   1.085       .  S
C1446      C1449   1.444       .  S
C1449      N1451   1.157       .  T
C1450      N1452   1.157       .  T
C1453      C1454   1.404       .  A
C1453      C1458   1.406       .  A
C1454      C1455   1.410       .  A
C1454      H1459   1.085       .  S
C1455      C1456   1.419       .  A
C1455      C1462   1.441       .  S
C1456      C1457   1.413       .  A
C1457      C1458   1.395       .  A
C1457      H1460   1.084       .  S
C1458      C1461   1.446       .  S
C1461      N1463   1.157       .  T
C1462      N1464   1.157       .  T
C1465      C1466   1.397       .  A
C1465      C1470   1.412       .  A
C1466      C1467   1.396   1_455  A
C1466      H1471   1.085       .  S
C1467      C1468   1.413       .  A
C1467      C1474   1.443       .  S
C1468      C1469   1.402   1_655  A
C1469      C1470   1.401       .  A
C1469      H1472   1.085   1_455  S
C1470      C1473   1.444       .  S
C1473      N1475   1.157       .  T
C1474      N1476   1.157       .  T
C1477      C1478   1.409       .  A
C1477      C1482   1.417       .  A
C1478      C1479   1.409       .  A
C1478      H1483   1.085       .  S
C1479      C1480   1.412       .  A
C1479      C1486   1.443       .  S
C1480      C1481   1.403       .  A
C1481      C1482   1.403       .  A
C1481      H1484   1.085       .  S
C1482      C1485   1.445       .  S
C1485      N1487   1.157       .  T
C1486      N1488   1.157       .  T
C1489      C1490   1.411       .  A
C1489      C1494   1.410       .  A
C1490      C1491   1.395       .  A
C1490      H1495   1.084       .  S
C1491      C1492   1.413       .  A
C1491      C1498   1.445       .  S
C1492      C1493   1.416       .  A
C1493      C1494   1.407       .  A
C1493      H1496   1.084       .  S
C1494      C1497   1.444       .  S
C1497      N1499   1.157       .  T
C1498      N1500   1.157       .  T
C1501      C1502   1.400       .  A
C1501      C1506   1.429       .  A
C1502      C1503   1.403       .  A
C1502      H1507   1.085       .  S
C1503      C1504   1.423       .  A
C1503      C1510   1.442       .  S
C1504      C1505   1.399       .  A
C1505      C1506   1.401       .  A
C1505      H1508   1.085       .  S
C1506      C1509   1.446       .  S
C1509      N1511   1.157       .  T
C1510      N1512   1.157       .  T
C1513      C1514   1.405       .  A
C1513      C1518   1.417       .  A
C1514      C1515   1.411       .  A
C1514      H1519   1.085       .  S
C1515      C1516   1.423       .  A
C1515      C1522   1.444       .  S
C1516      C1517   1.407       .  A
C1517      C1518   1.406       .  A
C1517      H1520   1.085       .  S
C1518      C1521   1.445       .  S
C1521      N1523   1.158       .  T
C1522      N1524   1.157       .  T
C1525      C1526   1.408       .  A
C1525      C1530   1.413       .  A
C1526      C1527   1.399       .  A
C1526      H1531   1.085       .  S
C1527      C1528   1.416       .  A
C1527      C1534   1.444       .  S
C1528      C1529   1.411       .  A
C1529      C1530   1.402       .  A
C1529      H1532   1.085       .  S
C1530      C1533   1.444       .  S
C1533      N1535   1.157       .  T
C1534      N1536   1.157       .  T
C1537      C1538   1.403       .  A
C1537      C1542   1.419       .  A
C1538      C1539   1.405       .  A
C1538      H1543   1.085       .  S
C1539      C1540   1.416       .  A
C1539      C1546   1.444       .  S
C1540      C1541   1.400       .  A
C1541      C1542   1.401       .  A
C1541      H1544   1.085       .  S
C1542      C1545   1.445       .  S
C1545      N1547   1.157       .  T
C1546      N1548   1.157       .  T
C1549      C1550   1.400       .  A
C1549      C1554   1.424       .  A
C1550      C1551   1.406   1_565  A
C1550      H1555   1.084       .  S
C1551      C1552   1.420       .  A
C1551      C1558   1.443       .  S
C1552      C1553   1.399       .  A
C1553      C1554   1.407   1_545  A
C1553      H1556   1.085       .  S
C1554      C1557   1.444       .  S
C1557      N1559   1.157       .  T
C1558      N1560   1.157       .  T
C1561      C1562   1.407   1_455  A
C1561      C1566   1.415   1_455  A
C1562      C1563   1.408       .  A
C1562      H1567   1.085   1_655  S
C1563      C1564   1.416       .  A
C1563      C1570   1.444       .  S
C1564      C1565   1.405       .  A
C1565      C1566   1.402       .  A
C1565      H1568   1.085       .  S
C1566      C1569   1.444       .  S
C1569      N1571   1.157   1_655  T
C1570      N1572   1.157       .  T
C1573      C1574   1.407       .  A
C1573      C1578   1.414       .  A
C1574      C1575   1.402       .  A
C1574      H1579   1.084       .  S
C1575      C1576   1.419       .  A
C1575      C1582   1.444       .  S
C1576      C1577   1.411       .  A
C1577      C1578   1.402       .  A
C1577      H1580   1.084       .  S
C1578      C1581   1.444       .  S
C1581      N1583   1.157       .  T
C1582      N1584   1.157       .  T
C1585      C1586   1.408       .  A
C1585      C1590   1.420       .  A
C1586      C1587   1.410       .  A
C1586      H1591   1.084       .  S
C1587      C1588   1.419       .  A
C1587      C1594   1.444       .  S
C1588      C1589   1.406       .  A
C1589      C1590   1.406       .  A
C1589      H1592   1.085       .  S
C1590      C1593   1.445       .  S
C1593      N1595   1.157       .  T
C1594      N1596   1.157       .  T
C1597      C1598   1.405       .  A
C1597      C1602   1.416       .  A
C1598      C1599   1.407       .  A
C1598      H1603   1.085       .  S
C1599      C1600   1.415       .  A
C1599      C1606   1.443       .  S
C1600      C1601   1.402       .  A
C1601      C1602   1.400       .  A
C1601      H1604   1.085       .  S
C1602      C1605   1.445       .  S
C1605      N1607   1.157       .  T
C1606      N1608   1.157       .  T
C1609      C1610   1.404       .  A
C1609      C1614   1.419       .  A
C1610      C1611   1.403       .  A
C1610      H1615   1.085       .  S
C1611      C1612   1.415       .  A
C1611      C1618   1.445       .  S
C1612      C1613   1.402       .  A
C1613      C1614   1.407       .  A
C1613      H1616   1.085       .  S
C1614      C1617   1.444       .  S
C1617      N1619   1.157       .  T
C1618      N1620   1.157       .  T
C1621      C1622   1.405       .  A
C1621      C1626   1.409       .  A
C1622      C1623   1.401   1_565  A
C1622      H1627   1.085       .  S
C1623      C1624   1.413       .  A
C1623      C1630   1.444       .  S
C1624      C1625   1.407       .  A
C1625      C1626   1.401   1_545  A
C1625      H1628   1.085       .  S
C1626      C1629   1.445       .  S
C1629      N1631   1.157       .  T
C1630      N1632   1.157       .  T
