geometry optimzed in LAMMPS
_audit_creation_date              2020-11-30 
_audit_creation_method            'lammps2cif' 
_symmetry_space_group_name_H-M    'P1' 
_symmetry_Int_Tables_number       1 
_symmetry_cell_setting            triclinic 
loop_ 
_symmetry_equiv_pos_as_xyz 
  x,y,z 
_cell_length_a                    36.45089028450083 
_cell_length_b                    26.15062769957593 
_cell_length_c                    27.343274495890075 
_cell_angle_alpha                 90.00099580216705 
_cell_angle_beta                  113.51008831911413 
_cell_angle_gamma                 89.99986874173652 
loop_ 
_atom_site_label 
_atom_site_type_symbol 
_atom_site_fract_x 
_atom_site_fract_y 
_atom_site_fract_z 
_atom_site_charge 
Fe1        Fe  0.06592543  0.23024981  0.24180444     1.65780
Fe2        Fe  0.09166645  0.13166006  0.19028389     1.73250
Fe3        Fe  0.00641305  0.19016035  0.12428872     1.54410
O4          O  0.31260092  0.22672109  0.17451097    -0.83050
O5          O  0.09965141  0.15386819  0.12594816    -0.81350
O6          O  0.02032930  0.19248892  0.24653940    -0.85550
O7          O  0.03191717  0.29029918  0.18538029    -0.80410
O8          O  0.32242238  0.12296969  0.14175160    -0.82180
O9          O  0.14123072  0.18471955  0.23311987    -0.84930
C10         C  0.01608136  0.29322534  0.13373632     0.95840
C11         C  0.32877837  0.22531807  0.22598893     1.03280
O12         O  0.05704908  0.18695661  0.18275641    -1.13910
O13         O  0.08056882  0.10332858  0.25217964    -0.76340
O14         O  0.09594913  0.17406196  0.29895922    -0.79830
O15         O  0.02076667  0.25833593  0.10530013    -0.80520
C16         C  0.08325037  0.12773130  0.29267008     0.94740
O17         O  0.11491070  0.26130508  0.23781541    -0.78470
O18         O  0.04246101  0.08128291  0.14312239    -0.83670
C19         C  0.07121989  0.14506989  0.08220490     0.97370
C20         C  0.00425319  0.08431682  0.13053025     1.03280
O21         O  0.03417171  0.15465295  0.07446199    -0.79310
C22         C  0.14380293  0.23465593  0.23833777     1.01580
Fe23       Fe  0.09111879  0.11533496  0.44028072     1.65780
Fe24       Fe  0.06620887  0.01617928  0.49198011     1.73250
Fe25       Fe  0.00695968  0.05467481  0.37345627     1.54410
O26         O  0.98797045  0.12147563  0.38930132    -0.83050
O27         O  0.03323238  0.45531996  0.43612226    -0.81350
O28         O  0.04126587  0.16473928  0.39256783    -0.85550
O29         O  0.10015803  0.09375120  0.37655014    -0.80410
O30         O  0.31297459  0.01794510  0.42341100    -0.82180
O31         O  0.11558636  0.98619692  0.98865905    -0.84930
C32         C  0.07194688  0.10154594  0.33238745     0.95840
C33         C  0.00299099  0.16089793  0.37931748     1.03280
O34         O  0.05714630  0.05928773  0.43264398    -1.13910
O35         O  0.09545260  0.07279620  0.04895116    -0.76340
O36         O  0.07921816  0.14317689  0.00168691    -0.79830
O37         O  0.03494453  0.09080170  0.32406403    -0.80520
C38         C  0.08233761  0.11890022  0.04241296     0.94740
O39         O  0.14131643  0.06311182  0.48362042    -0.78470
O40         O  0.01988871  0.55286287  0.49573100    -0.83670
C41         C  0.01768907  0.45191386  0.38455005     0.97370
C42         C  0.32874358  0.01959723  0.47491672     1.03280
O43         O  0.02267312  0.48650238  0.35598085    -0.79310
C44         C  0.14425421  0.01319109  0.48905770     1.01580
Fe45       Fe  0.23466482  0.36533428  0.29577296     1.65780
Fe46       Fe  0.25957548  0.26617807  0.24407293     1.73250
Fe47       Fe  0.31882352  0.30467487  0.36259788     1.54410
O48         O  0.33781285  0.37147469  0.34675310    -0.83050
O49         O  0.29255145  0.20531918  0.29993086    -0.81350
O50         O  0.28451759  0.41473902  0.34348654    -0.85550
O51         O  0.22562503  0.34375115  0.35950251    -0.80410
O52         O  0.01280930  0.26794446  0.31264397    -0.82180
O53         O  0.21019687  0.23619604  0.24739158    -0.84930
C54         C  0.25383585  0.35154593  0.40366576     0.95840
C55         C  0.32279231  0.41089766  0.35673626     1.03280
O56         O  0.26863714  0.30928698  0.30340956    -1.13910
O57         O  0.23033317  0.32279429  0.18710163    -0.76340
O58         O  0.24656583  0.39317569  0.23436762    -0.79830
O59         O  0.29083832  0.34080249  0.41198964    -0.80520
C60         C  0.24344715  0.36889908  0.19364102     0.94740
O61         O  0.18446722  0.31311105  0.25243236    -0.78470
O62         O  0.30589620  0.30286296  0.24032548    -0.83670
C63         C  0.30809426  0.20191379  0.35150318     0.97360
C64         C  0.99704070  0.26959700  0.26113850     1.03280
O65         O  0.30310985  0.23650296  0.38007250    -0.79310
C66         C  0.18152938  0.26319030  0.24699486     1.01580
Fe67       Fe  0.25985782  0.48024916  0.49425015     1.65780
Fe68       Fe  0.23411699  0.38166029  0.04577007     1.73250
Fe69       Fe  0.31937058  0.44016140  0.11176573     1.54420
O70         O  0.01318251  0.47672105  0.06154305    -0.83050
O71         O  0.22613254  0.40386883  0.11010701    -0.81350
O72         O  0.30545367  0.44248913  0.48951294    -0.85550
O73         O  0.29386635  0.04029904  0.05067425    -0.80410
O74         O  0.33669569  0.37296959  0.09430466    -0.82180
O75         O  0.18455300  0.43472012  0.00293512    -0.84930
C76         C  0.30970186  0.04322581  0.10231805     0.95840
C77         C  0.99700505  0.47531816  0.01006483     1.03280
O78         O  0.26873476  0.43695634  0.05329773    -1.13910
O79         O  0.24521393  0.35332816  0.48387334    -0.76340
O80         O  0.22983283  0.42406083  0.43709531    -0.79830
O81         O  0.30501566  0.00833737  0.13075346    -0.80520
C82         C  0.24253191  0.37773063  0.44338341     0.94740
O83         O  0.21087346  0.01130524  0.49824063    -0.78470
O84         O  0.28332254  0.33128330  0.09293053    -0.83670
C85         C  0.25456426  0.39507018  0.15384967     0.97370
C86         C  0.32153072  0.33431699  0.10552451     1.03280
O87         O  0.29161227  0.40465453  0.16159246    -0.79350
C88         C  0.18198088  0.48465639  0.49771685     1.01580
Fe89       Fe  0.06592543  0.23024981  0.74180444     1.65780
Fe90       Fe  0.09166645  0.13166007  0.69028389     1.73250
Fe91       Fe  0.00641305  0.19016036  0.62428873     1.54410
O92         O  0.31260091  0.22672108  0.67451096    -0.83050
O93         O  0.09965141  0.15386820  0.62594816    -0.81350
O94         O  0.02032930  0.19248892  0.74653940    -0.85550
O95         O  0.03191717  0.29029918  0.68538029    -0.80410
O96         O  0.32242237  0.12296969  0.64175158    -0.82180
O97         O  0.14123072  0.18471956  0.73311987    -0.84930
C98         C  0.01608135  0.29322534  0.63373632     0.95840
C99         C  0.32877836  0.22531806  0.72598892     1.03280
O100        O  0.05704908  0.18695661  0.68275641    -1.13910
O101        O  0.08056883  0.10332858  0.75217965    -0.76340
O102        O  0.09594914  0.17406197  0.79895922    -0.79830
O103        O  0.02076667  0.25833592  0.60530014    -0.80520
C104        C  0.08325038  0.12773131  0.79267008     0.94740
O105        O  0.11491070  0.26130509  0.73781541    -0.78470
O106        O  0.04246101  0.08128292  0.64312239    -0.83670
C107        C  0.07121989  0.14506990  0.58220490     0.97370
C108        C  0.00425320  0.08431682  0.63053025     1.03280
O109        O  0.03417170  0.15465296  0.57446199    -0.79310
C110        C  0.14380293  0.23465593  0.73833777     1.01580
Fe111      Fe  0.09111880  0.11533496  0.94028073     1.65780
Fe112      Fe  0.06620889  0.01617928  0.99198011     1.73250
Fe113      Fe  0.00695969  0.05467482  0.87345628     1.54410
O114        O  0.98797046  0.12147563  0.88930133    -0.83050
O115        O  0.03323239  0.45531996  0.93612226    -0.81350
O116        O  0.04126588  0.16473928  0.89256784    -0.85550
O117        O  0.10015804  0.09375121  0.87655014    -0.80410
O118        O  0.31297459  0.01794510  0.92341101    -0.82180
O119        O  0.11558634  0.98619692  0.48865905    -0.84930
C120        C  0.07194688  0.10154595  0.83238745     0.95840
C121        C  0.00299100  0.16089793  0.87931748     1.03280
O122        O  0.05714631  0.05928773  0.93264398    -1.13910
O123        O  0.09545258  0.07279620  0.54895116    -0.76340
O124        O  0.07921815  0.14317689  0.50168691    -0.79830
O125        O  0.03494454  0.09080170  0.82406403    -0.80520
C126        C  0.08233760  0.11890022  0.54241296     0.94740
O127        O  0.14131644  0.06311182  0.98362042    -0.78470
O128        O  0.01988872  0.55286287  0.99573101    -0.83670
C129        C  0.01768908  0.45191386  0.88455005     0.97370
C130        C  0.32874358  0.01959724  0.97491673     1.03280
O131        O  0.02267313  0.48650238  0.85598086    -0.79310
C132        C  0.14425423  0.01319110  0.98905770     1.01580
Fe133      Fe  0.23466482  0.36533428  0.79577296     1.65780
Fe134      Fe  0.25957548  0.26617807  0.74407294     1.73250
Fe135      Fe  0.31882353  0.30467488  0.86259787     1.54410
O136        O  0.33781285  0.37147470  0.84675309    -0.83050
O137        O  0.29255145  0.20531918  0.79993087    -0.81350
O138        O  0.28451759  0.41473903  0.84348653    -0.85550
O139        O  0.22562504  0.34375116  0.85950252    -0.80410
O140        O  0.01280931  0.26794446  0.81264398    -0.82180
O141        O  0.21019687  0.23619604  0.74739160    -0.84930
C142        C  0.25383586  0.35154594  0.90366577     0.95840
C143        C  0.32279231  0.41089766  0.85673626     1.03280
O144        O  0.26863714  0.30928698  0.80340956    -1.13910
O145        O  0.23033316  0.32279429  0.68710163    -0.76340
O146        O  0.24656582  0.39317569  0.73436762    -0.79830
O147        O  0.29083833  0.34080250  0.91198965    -0.80520
C148        C  0.24344714  0.36889907  0.69364101     0.94740
O149        O  0.18446722  0.31311106  0.75243237    -0.78470
O150        O  0.30589619  0.30286296  0.74032547    -0.83670
C151        C  0.30809426  0.20191380  0.85150319     0.97360
C152        C  0.99704071  0.26959700  0.76113851     1.03280
O153        O  0.30310985  0.23650296  0.88007250    -0.79310
C154        C  0.18152938  0.26319031  0.74699486     1.01580
Fe155      Fe  0.25985784  0.48024918  0.99425016     1.65780
Fe156      Fe  0.23411698  0.38166027  0.54577007     1.73250
Fe157      Fe  0.31937057  0.44016139  0.61176571     1.54420
O158        O  0.01318251  0.47672104  0.56154304    -0.83050
O159        O  0.22613253  0.40386881  0.61010700    -0.81350
O160        O  0.30545369  0.44248914  0.98951296    -0.85550
O161        O  0.29386633  0.04029903  0.55067424    -0.80410
O162        O  0.33669567  0.37296957  0.59430464    -0.82180
O163        O  0.18455298  0.43472009  0.50293511    -0.84930
C164        C  0.30970185  0.04322580  0.60231804     0.95840
C165        C  0.99700504  0.47531816  0.51006483     1.03280
O166        O  0.26873474  0.43695632  0.55329772    -1.13910
O167        O  0.24521394  0.35332818  0.98387335    -0.76340
O168        O  0.22983285  0.42406085  0.93709531    -0.79830
O169        O  0.30501565  0.00833736  0.63075345    -0.80520
C170        C  0.24253193  0.37773064  0.94338342     0.94740
O171        O  0.21087348  0.01130524  0.99824063    -0.78470
O172        O  0.28332253  0.33128328  0.59293053    -0.83670
C173        C  0.25456426  0.39507017  0.65384966     0.97370
C174        C  0.32153071  0.33431697  0.60552449     1.03280
O175        O  0.29161226  0.40465451  0.66159245    -0.79350
C176        C  0.18198089  0.48465642  0.99771685     1.01580
Fe177      Fe  0.06592543  0.73024981  0.24180444     1.65780
Fe178      Fe  0.09166645  0.63166006  0.19028389     1.73250
Fe179      Fe  0.00641305  0.69016036  0.12428872     1.54410
O180        O  0.31260093  0.72672109  0.17451097    -0.83050
O181        O  0.09965141  0.65386820  0.12594816    -0.81350
O182        O  0.02032930  0.69248892  0.24653939    -0.85550
O183        O  0.03191717  0.79029918  0.18538029    -0.80410
O184        O  0.32242239  0.62296970  0.14175160    -0.82180
O185        O  0.14123072  0.68471956  0.23311987    -0.84930
C186        C  0.01608135  0.79322534  0.13373632     0.95840
C187        C  0.32877838  0.72531807  0.22598894     1.03280
O188        O  0.05704908  0.68695661  0.18275641    -1.13910
O189        O  0.08056883  0.60332858  0.25217964    -0.76340
O190        O  0.09594914  0.67406196  0.29895922    -0.79830
O191        O  0.02076667  0.75833593  0.10530013    -0.80520
C192        C  0.08325037  0.62773131  0.29267008     0.94740
O193        O  0.11491070  0.76130508  0.23781541    -0.78470
O194        O  0.04246101  0.58128292  0.14312239    -0.83670
C195        C  0.07121989  0.64506990  0.08220490     0.97370
C196        C  0.00425320  0.58431682  0.13053025     1.03280
O197        O  0.03417171  0.65465296  0.07446199    -0.79310
C198        C  0.14380293  0.73465593  0.23833777     1.01580
Fe199      Fe  0.09111879  0.61533496  0.44028072     1.65780
Fe200      Fe  0.06620887  0.51617928  0.49198010     1.73250
Fe201      Fe  0.00695968  0.55467481  0.37345627     1.54410
O202        O  0.98797045  0.62147563  0.38930132    -0.83050
O203        O  0.03323238  0.95531996  0.43612226    -0.81350
O204        O  0.04126588  0.66473927  0.39256783    -0.85550
O205        O  0.10015803  0.59375120  0.37655014    -0.80410
O206        O  0.31297458  0.51794509  0.42341099    -0.82180
O207        O  0.11558636  0.48619693  0.98865904    -0.84930
C208        C  0.07194688  0.60154594  0.33238745     0.95840
C209        C  0.00299099  0.66089793  0.37931748     1.03280
O210        O  0.05714630  0.55928772  0.43264398    -1.13910
O211        O  0.09545259  0.57279621  0.04895116    -0.76340
O212        O  0.07921815  0.64317689  0.00168691    -0.79830
O213        O  0.03494453  0.59080169  0.32406403    -0.80520
C214        C  0.08233760  0.61890023  0.04241296     0.94740
O215        O  0.14131643  0.56311181  0.48362042    -0.78470
O216        O  0.01988871  0.05286288  0.49573100    -0.83670
C217        C  0.01768907  0.95191386  0.38455005     0.97370
C218        C  0.32874357  0.51959723  0.47491671     1.03280
O219        O  0.02267312  0.98650238  0.35598085    -0.79310
C220        C  0.14425421  0.51319109  0.48905770     1.01580
Fe221      Fe  0.23466482  0.86533428  0.29577296     1.65780
Fe222      Fe  0.25957549  0.76617807  0.24407293     1.73250
Fe223      Fe  0.31882352  0.80467487  0.36259788     1.54410
O224        O  0.33781286  0.87147469  0.34675311    -0.83050
O225        O  0.29255146  0.70531918  0.29993086    -0.81350
O226        O  0.28451759  0.91473902  0.34348654    -0.85550
O227        O  0.22562503  0.84375116  0.35950251    -0.80410
O228        O  0.01280931  0.76794446  0.31264397    -0.82180
O229        O  0.21019688  0.73619604  0.24739158    -0.84930
C230        C  0.25383586  0.85154593  0.40366576     0.95840
C231        C  0.32279232  0.91089766  0.35673627     1.03280
O232        O  0.26863714  0.80928698  0.30340956    -1.13910
O233        O  0.23033317  0.82279429  0.18710163    -0.76340
O234        O  0.24656583  0.89317570  0.23436762    -0.79830
O235        O  0.29083832  0.84080249  0.41198965    -0.80520
C236        C  0.24344715  0.86889908  0.19364102     0.94740
O237        O  0.18446722  0.81311106  0.25243236    -0.78470
O238        O  0.30589620  0.80286296  0.24032548    -0.83670
C239        C  0.30809426  0.70191379  0.35150318     0.97360
C240        C  0.99704071  0.76959700  0.26113850     1.03280
O241        O  0.30310985  0.73650295  0.38007250    -0.79310
C242        C  0.18152938  0.76319031  0.24699486     1.01580
Fe243      Fe  0.25985782  0.98024917  0.49425015     1.65780
Fe244      Fe  0.23411700  0.88166028  0.04577008     1.73250
Fe245      Fe  0.31937058  0.94016140  0.11176573     1.54420
O246        O  0.01318250  0.97672104  0.06154305    -0.83050
O247        O  0.22613255  0.90386883  0.11010701    -0.81350
O248        O  0.30545367  0.94248914  0.48951294    -0.85550
O249        O  0.29386635  0.54029904  0.05067425    -0.80410
O250        O  0.33669570  0.87296959  0.09430467    -0.82180
O251        O  0.18455300  0.93472010  0.00293512    -0.84930
C252        C  0.30970186  0.54322581  0.10231806     0.95840
C253        C  0.99700504  0.97531816  0.01006483     1.03280
O254        O  0.26873476  0.93695633  0.05329773    -1.13910
O255        O  0.24521393  0.85332816  0.48387335    -0.76340
O256        O  0.22983283  0.92406084  0.43709531    -0.79830
O257        O  0.30501566  0.50833737  0.13075346    -0.80520
C258        C  0.24253192  0.87773063  0.44338341     0.94740
O259        O  0.21087346  0.51130523  0.49824063    -0.78470
O260        O  0.28332255  0.83128330  0.09293054    -0.83670
C261        C  0.25456427  0.89507018  0.15384967     0.97370
C262        C  0.32153073  0.83431698  0.10552451     1.03280
O263        O  0.29161228  0.90465453  0.16159247    -0.79350
C264        C  0.18198088  0.98465640  0.49771685     1.01580
Fe265      Fe  0.06592543  0.73024981  0.74180444     1.65780
Fe266      Fe  0.09166646  0.63166006  0.69028389     1.73250
Fe267      Fe  0.00641305  0.69016035  0.62428873     1.54410
O268        O  0.31260091  0.72672108  0.67451096    -0.83050
O269        O  0.09965141  0.65386820  0.62594816    -0.81350
O270        O  0.02032931  0.69248893  0.74653941    -0.85550
O271        O  0.03191718  0.79029918  0.68538030    -0.80410
O272        O  0.32242237  0.62296968  0.64175158    -0.82180
O273        O  0.14123072  0.68471955  0.73311987    -0.84930
C274        C  0.01608136  0.79322534  0.63373633     0.95840
C275        C  0.32877836  0.72531806  0.72598892     1.03280
O276        O  0.05704908  0.68695661  0.68275641    -1.13910
O277        O  0.08056883  0.60332858  0.75217964    -0.76340
O278        O  0.09594914  0.67406196  0.79895922    -0.79830
O279        O  0.02076667  0.75833592  0.60530014    -0.80520
C280        C  0.08325038  0.62773131  0.79267008     0.94740
O281        O  0.11491071  0.76130508  0.73781541    -0.78470
O282        O  0.04246101  0.58128292  0.64312239    -0.83670
C283        C  0.07121989  0.64506989  0.58220490     0.97370
C284        C  0.00425320  0.58431682  0.63053025     1.03280
O285        O  0.03417170  0.65465295  0.57446199    -0.79310
C286        C  0.14380294  0.73465593  0.73833777     1.01580
Fe287      Fe  0.09111879  0.61533497  0.94028072     1.65780
Fe288      Fe  0.06620889  0.51617929  0.99198011     1.73250
Fe289      Fe  0.00695969  0.55467482  0.87345627     1.54410
O290        O  0.98797046  0.62147564  0.88930132    -0.83050
O291        O  0.03323239  0.95531996  0.93612226    -0.81350
O292        O  0.04126587  0.66473928  0.89256783    -0.85550
O293        O  0.10015804  0.59375121  0.87655014    -0.80410
O294        O  0.31297459  0.51794510  0.92341101    -0.82180
O295        O  0.11558634  0.48619691  0.48865905    -0.84930
C296        C  0.07194688  0.60154595  0.83238745     0.95840
C297        C  0.00299099  0.66089794  0.87931748     1.03280
O298        O  0.05714630  0.55928773  0.93264398    -1.13910
O299        O  0.09545258  0.57279619  0.54895116    -0.76340
O300        O  0.07921815  0.64317688  0.50168691    -0.79830
O301        O  0.03494454  0.59080170  0.82406403    -0.80520
C302        C  0.08233760  0.61890021  0.54241296     0.94740
O303        O  0.14131644  0.56311183  0.98362042    -0.78470
O304        O  0.01988873  0.05286287  0.99573102    -0.83670
C305        C  0.01768908  0.95191386  0.88455005     0.97370
C306        C  0.32874358  0.51959724  0.97491673     1.03280
O307        O  0.02267313  0.98650238  0.85598086    -0.79310
C308        C  0.14425422  0.51319111  0.98905770     1.01580
Fe309      Fe  0.23466482  0.86533428  0.79577297     1.65780
Fe310      Fe  0.25957549  0.76617807  0.74407294     1.73250
Fe311      Fe  0.31882353  0.80467488  0.86259788     1.54410
O312        O  0.33781286  0.87147470  0.84675309    -0.83050
O313        O  0.29255146  0.70531918  0.79993087    -0.81350
O314        O  0.28451760  0.91473902  0.84348654    -0.85550
O315        O  0.22562504  0.84375115  0.85950252    -0.80410
O316        O  0.01280931  0.76794446  0.81264398    -0.82180
O317        O  0.21019688  0.73619604  0.74739160    -0.84930
C318        C  0.25383587  0.85154593  0.90366577     0.95840
C319        C  0.32279232  0.91089766  0.85673626     1.03280
O320        O  0.26863714  0.80928698  0.80340956    -1.13910
O321        O  0.23033316  0.82279429  0.68710163    -0.76340
O322        O  0.24656583  0.89317569  0.73436762    -0.79830
O323        O  0.29083834  0.84080250  0.91198965    -0.80520
C324        C  0.24344714  0.86889907  0.69364102     0.94740
O325        O  0.18446723  0.81311105  0.75243237    -0.78470
O326        O  0.30589620  0.80286296  0.74032548    -0.83670
C327        C  0.30809427  0.70191380  0.85150319     0.97360
C328        C  0.99704071  0.76959700  0.76113851     1.03280
O329        O  0.30310986  0.73650296  0.88007251    -0.79310
C330        C  0.18152939  0.76319030  0.74699487     1.01580
Fe331      Fe  0.25985784  0.98024917  0.99425016     1.65780
Fe332      Fe  0.23411698  0.88166027  0.54577007     1.73250
Fe333      Fe  0.31937057  0.94016139  0.61176571     1.54420
O334        O  0.01318251  0.97672105  0.56154305    -0.83050
O335        O  0.22613253  0.90386882  0.61010700    -0.81350
O336        O  0.30545370  0.94248914  0.98951296    -0.85550
O337        O  0.29386633  0.54029903  0.55067424    -0.80410
O338        O  0.33669568  0.87296958  0.59430465    -0.82180
O339        O  0.18455298  0.93472010  0.50293512    -0.84930
C340        C  0.30970185  0.54322580  0.60231805     0.95840
C341        C  0.99700505  0.97531816  0.51006484     1.03280
O342        O  0.26873475  0.93695632  0.55329772    -1.13910
O343        O  0.24521395  0.85332817  0.98387336    -0.76340
O344        O  0.22983286  0.92406084  0.93709531    -0.79830
O345        O  0.30501566  0.50833735  0.63075345    -0.80520
C346        C  0.24253194  0.87773063  0.94338342     0.94740
O347        O  0.21087348  0.51130525  0.99824063    -0.78470
O348        O  0.28332253  0.83128329  0.59293053    -0.83670
C349        C  0.25456426  0.89507017  0.65384966     0.97370
C350        C  0.32153071  0.83431697  0.60552449     1.03280
O351        O  0.29161226  0.90465452  0.66159245    -0.79350
C352        C  0.18198089  0.98465640  0.99771685     1.01580
Fe353      Fe  0.39925876  0.23024983  0.24180445     1.65780
Fe354      Fe  0.42499978  0.13166008  0.19028389     1.73250
Fe355      Fe  0.33974638  0.19016038  0.12428873     1.54410
O356        O  0.64593425  0.22672109  0.17451098    -0.83050
O357        O  0.43298474  0.15386822  0.12594816    -0.81350
O358        O  0.35366262  0.19248893  0.24653940    -0.85550
O359        O  0.36525051  0.29029920  0.18538030    -0.80410
O360        O  0.65575570  0.12296969  0.14175159    -0.82180
O361        O  0.47456405  0.18471957  0.23311988    -0.84930
C362        C  0.34941469  0.29322536  0.13373633     0.95840
C363        C  0.66211170  0.22531807  0.22598894     1.03280
O364        O  0.39038241  0.18695663  0.18275641    -1.13910
O365        O  0.41390215  0.10332859  0.25217965    -0.76340
O366        O  0.42928246  0.17406197  0.29895923    -0.79830
O367        O  0.35410000  0.25833595  0.10530014    -0.80520
C368        C  0.41658370  0.12773132  0.29267009     0.94740
O369        O  0.44824403  0.26130510  0.23781543    -0.78470
O370        O  0.37579434  0.08128294  0.14312239    -0.83670
C371        C  0.40455322  0.14506992  0.08220490     0.97370
C372        C  0.33758652  0.08431684  0.13053025     1.03280
O373        O  0.36750503  0.15465298  0.07446199    -0.79310
C374        C  0.47713626  0.23465594  0.23833779     1.01580
Fe375      Fe  0.42445212  0.11533497  0.44028073     1.65780
Fe376      Fe  0.39954220  0.01617929  0.49198011     1.73250
Fe377      Fe  0.34029301  0.05467483  0.37345627     1.54410
O378        O  0.32130379  0.12147565  0.38930133    -0.83050
O379        O  0.36656570  0.45531997  0.43612225    -0.81350
O380        O  0.37459921  0.16473929  0.39256784    -0.85550
O381        O  0.43349136  0.09375121  0.37655014    -0.80410
O382        O  0.64630793  0.01794510  0.42341102    -0.82180
O383        O  0.44891967  0.98619692  0.98865906    -0.84930
C384        C  0.40528021  0.10154595  0.33238745     0.95840
C385        C  0.33632433  0.16089794  0.37931748     1.03280
O386        O  0.39047963  0.05928773  0.43264398    -1.13910
O387        O  0.42878591  0.07279621  0.04895117    -0.76340
O388        O  0.41255148  0.14317690  0.00168692    -0.79830
O389        O  0.36827786  0.09080171  0.32406403    -0.80520
C390        C  0.41567093  0.11890023  0.04241297     0.94740
O391        O  0.47464976  0.06311182  0.48362042    -0.78470
O392        O  0.35322203  0.55286289  0.49573100    -0.83670
C393        C  0.35102240  0.45191387  0.38455005     0.97370
C394        C  0.66207692  0.01959723  0.47491674     1.03280
O395        O  0.35600645  0.48650239  0.35598085    -0.79310
C396        C  0.47758755  0.01319110  0.48905770     1.01580
Fe397      Fe  0.56799815  0.36533429  0.29577297     1.65780
Fe398      Fe  0.59290881  0.26617808  0.24407295     1.73250
Fe399      Fe  0.65215685  0.30467488  0.36259789     1.54410
O400        O  0.67114618  0.37147470  0.34675311    -0.83050
O401        O  0.62588479  0.20531918  0.29993088    -0.81350
O402        O  0.61785092  0.41473903  0.34348655    -0.85550
O403        O  0.55895836  0.34375117  0.35950252    -0.80410
O404        O  0.34614264  0.26794448  0.31264398    -0.82180
O405        O  0.54353020  0.23619605  0.24739161    -0.84930
C406        C  0.58716918  0.35154594  0.40366577     0.95840
C407        C  0.65612565  0.41089767  0.35673627     1.03280
O408        O  0.60197047  0.30928699  0.30340958    -1.13910
O409        O  0.56366649  0.32279429  0.18710165    -0.76340
O410        O  0.57989916  0.39317570  0.23436763    -0.79830
O411        O  0.62417165  0.34080250  0.41198966    -0.80520
C412        C  0.57678047  0.36889908  0.19364103     0.94740
O413        O  0.51780055  0.31311106  0.25243237    -0.78470
O414        O  0.63922952  0.30286296  0.24032549    -0.83670
C415        C  0.64142759  0.20191380  0.35150320     0.97360
C416        C  0.33037404  0.26959702  0.26113851     1.03280
O417        O  0.63644318  0.23650296  0.38007252    -0.79310
C418        C  0.51486271  0.26319031  0.24699488     1.01580
Fe419      Fe  0.59319115  0.48024917  0.49425017     1.65780
Fe420      Fe  0.56745031  0.38166027  0.04577008     1.73250
Fe421      Fe  0.65270390  0.44016140  0.11176572     1.54420
O422        O  0.34651585  0.47672107  0.06154306    -0.83050
O423        O  0.55946586  0.40386882  0.11010701    -0.81350
O424        O  0.63878700  0.44248914  0.48951295    -0.85550
O425        O  0.62719966  0.04029904  0.05067425    -0.80410
O426        O  0.67002901  0.37296959  0.09430466    -0.82180
O427        O  0.51788631  0.43472009  0.00293512    -0.84930
C428        C  0.64303518  0.04322581  0.10231805     0.95840
C429        C  0.33033839  0.47531818  0.01006484     1.03280
O430        O  0.60206808  0.43695632  0.05329773    -1.13910
O431        O  0.57854726  0.35332816  0.48387336    -0.76340
O432        O  0.56316616  0.42406084  0.43709532    -0.79830
O433        O  0.63834898  0.00833736  0.13075346    -0.80520
C434        C  0.57586525  0.37773064  0.44338342     0.94740
O435        O  0.54420680  0.01130524  0.49824064    -0.78470
O436        O  0.61665587  0.33128329  0.09293054    -0.83670
C437        C  0.58789759  0.39507017  0.15384967     0.97370
C438        C  0.65486404  0.33431698  0.10552451     1.03280
O439        O  0.62494559  0.40465452  0.16159246    -0.79350
C440        C  0.51531420  0.48465640  0.49771687     1.01580
Fe441      Fe  0.39925875  0.23024982  0.74180444     1.65780
Fe442      Fe  0.42499977  0.13166007  0.69028389     1.73250
Fe443      Fe  0.33974637  0.19016037  0.62428872     1.54410
O444        O  0.64593425  0.22672107  0.67451097    -0.83050
O445        O  0.43298474  0.15386820  0.62594816    -0.81350
O446        O  0.35366262  0.19248893  0.74653939    -0.85550
O447        O  0.36525050  0.29029919  0.68538029    -0.80410
O448        O  0.65575572  0.12296968  0.64175160    -0.82180
O449        O  0.47456404  0.18471956  0.73311988    -0.84930
C450        C  0.34941469  0.29322535  0.63373632     0.95840
C451        C  0.66211170  0.22531806  0.72598893     1.03280
O452        O  0.39038240  0.18695662  0.68275641    -1.13910
O453        O  0.41390214  0.10332859  0.75217964    -0.76340
O454        O  0.42928245  0.17406197  0.79895922    -0.79830
O455        O  0.35410000  0.25833594  0.60530014    -0.80520
C456        C  0.41658369  0.12773131  0.79267008     0.94740
O457        O  0.44824403  0.26130509  0.73781542    -0.78470
O458        O  0.37579433  0.08128293  0.64312239    -0.83670
C459        C  0.40455322  0.14506990  0.58220490     0.97370
C460        C  0.33758651  0.08431683  0.63053024     1.03280
O461        O  0.36750503  0.15465297  0.57446199    -0.79310
C462        C  0.47713626  0.23465593  0.73833778     1.01580
Fe463      Fe  0.42445212  0.11533497  0.94028073     1.65780
Fe464      Fe  0.39954220  0.01617930  0.99198011     1.73250
Fe465      Fe  0.34029301  0.05467483  0.87345628     1.54410
O466        O  0.32130378  0.12147565  0.88930133    -0.83050
O467        O  0.36656571  0.45531997  0.93612225    -0.81350
O468        O  0.37459921  0.16473929  0.89256784    -0.85550
O469        O  0.43349136  0.09375121  0.87655014    -0.80410
O470        O  0.64630791  0.01794510  0.92341100    -0.82180
O471        O  0.44891968  0.98619692  0.48865905    -0.84930
C472        C  0.40528020  0.10154595  0.83238745     0.95840
C473        C  0.33632432  0.16089795  0.87931748     1.03280
O474        O  0.39047963  0.05928774  0.93264399    -1.13910
O475        O  0.42878591  0.07279620  0.54895116    -0.76340
O476        O  0.41255148  0.14317689  0.50168692    -0.79830
O477        O  0.36827785  0.09080171  0.82406404    -0.80520
C478        C  0.41567093  0.11890023  0.54241296     0.94740
O479        O  0.47464976  0.06311182  0.98362042    -0.78470
O480        O  0.35322205  0.55286290  0.99573101    -0.83670
C481        C  0.35102240  0.45191388  0.88455005     0.97370
C482        C  0.66207690  0.01959724  0.97491672     1.03280
O483        O  0.35600644  0.48650240  0.85598085    -0.79310
C484        C  0.47758754  0.01319110  0.98905771     1.01580
Fe485      Fe  0.56799814  0.36533428  0.79577297     1.65780
Fe486      Fe  0.59290880  0.26617807  0.74407294     1.73250
Fe487      Fe  0.65215685  0.30467488  0.86259788     1.54410
O488        O  0.67114618  0.37147470  0.84675309    -0.83050
O489        O  0.62588478  0.20531918  0.79993087    -0.81350
O490        O  0.61785091  0.41473903  0.84348654    -0.85550
O491        O  0.55895836  0.34375116  0.85950252    -0.80410
O492        O  0.34614264  0.26794448  0.81264397    -0.82180
O493        O  0.54353020  0.23619604  0.74739161    -0.84930
C494        C  0.58716919  0.35154593  0.90366577     0.95840
C495        C  0.65612564  0.41089767  0.85673626     1.03280
O496        O  0.60197046  0.30928698  0.80340957    -1.13910
O497        O  0.56366648  0.32279429  0.68710164    -0.76340
O498        O  0.57989915  0.39317569  0.73436762    -0.79830
O499        O  0.62417165  0.34080250  0.91198965    -0.80520
C500        C  0.57678046  0.36889907  0.69364102     0.94740
O501        O  0.51780054  0.31311105  0.75243237    -0.78470
O502        O  0.63922951  0.30286295  0.74032547    -0.83670
C503        C  0.64142759  0.20191380  0.85150319     0.97360
C504        C  0.33037404  0.26959702  0.76113849     1.03280
O505        O  0.63644318  0.23650296  0.88007251    -0.79310
C506        C  0.51486271  0.26319030  0.74699487     1.01580
Fe507      Fe  0.59319115  0.48024917  0.99425016     1.65780
Fe508      Fe  0.56745030  0.38166027  0.54577008     1.73250
Fe509      Fe  0.65270390  0.44016138  0.61176572     1.54420
O510        O  0.34651583  0.47672105  0.56154304    -0.83050
O511        O  0.55946586  0.40386881  0.61010701    -0.81350
O512        O  0.63878700  0.44248914  0.98951295    -0.85550
O513        O  0.62719967  0.04029903  0.55067426    -0.80410
O514        O  0.67002900  0.37296957  0.59430464    -0.82180
O515        O  0.51788631  0.43472010  0.50293513    -0.84930
C516        C  0.64303519  0.04322580  0.60231806     0.95840
C517        C  0.33033837  0.47531817  0.51006482     1.03280
O518        O  0.60206807  0.43695632  0.55329773    -1.13910
O519        O  0.57854726  0.35332816  0.98387336    -0.76340
O520        O  0.56316616  0.42406084  0.93709532    -0.79830
O521        O  0.63834899  0.00833736  0.63075347    -0.80520
C522        C  0.57586525  0.37773063  0.94338342     0.94740
O523        O  0.54420679  0.01130524  0.99824065    -0.78470
O524        O  0.61665586  0.33128328  0.59293054    -0.83670
C525        C  0.58789758  0.39507017  0.65384967     0.97370
C526        C  0.65486404  0.33431697  0.60552450     1.03280
O527        O  0.62494559  0.40465451  0.66159246    -0.79350
C528        C  0.51531421  0.48465639  0.99771686     1.01580
Fe529      Fe  0.39925877  0.73024982  0.24180446     1.65780
Fe530      Fe  0.42499979  0.63166007  0.19028390     1.73250
Fe531      Fe  0.33974639  0.69016038  0.12428873     1.54410
O532        O  0.64593425  0.72672109  0.17451097    -0.83050
O533        O  0.43298475  0.65386821  0.12594817    -0.81350
O534        O  0.35366264  0.69248894  0.24653940    -0.85550
O535        O  0.36525052  0.79029920  0.18538031    -0.80410
O536        O  0.65575571  0.62296969  0.14175159    -0.82180
O537        O  0.47456406  0.68471956  0.23311989    -0.84930
C538        C  0.34941471  0.79322536  0.13373634     0.95840
C539        C  0.66211170  0.72531807  0.22598894     1.03280
O540        O  0.39038242  0.68695662  0.18275642    -1.13910
O541        O  0.41390216  0.60332859  0.25217965    -0.76340
O542        O  0.42928247  0.67406197  0.29895923    -0.79830
O543        O  0.35410002  0.75833595  0.10530015    -0.80520
C544        C  0.41658371  0.62773131  0.29267009     0.94740
O545        O  0.44824405  0.76130509  0.23781544    -0.78470
O546        O  0.37579434  0.58128293  0.14312240    -0.83670
C547        C  0.40455323  0.64506991  0.08220491     0.97370
C548        C  0.33758653  0.58431684  0.13053025     1.03280
O549        O  0.36750505  0.65465298  0.07446200    -0.79310
C550        C  0.47713628  0.73465593  0.23833779     1.01580
Fe551      Fe  0.42445212  0.61533496  0.44028073     1.65780
Fe552      Fe  0.39954219  0.51617929  0.49198011     1.73250
Fe553      Fe  0.34029301  0.55467482  0.37345627     1.54410
O554        O  0.32130378  0.62147564  0.38930132    -0.83050
O555        O  0.36656571  0.95531997  0.43612226    -0.81350
O556        O  0.37459921  0.66473928  0.39256784    -0.85550
O557        O  0.43349136  0.59375120  0.37655014    -0.80410
O558        O  0.64630792  0.51794510  0.42341102    -0.82180
O559        O  0.44891967  0.48619692  0.98865905    -0.84930
C560        C  0.40528021  0.60154595  0.33238745     0.95840
C561        C  0.33632432  0.66089794  0.37931748     1.03280
O562        O  0.39047962  0.55928773  0.43264398    -1.13910
O563        O  0.42878592  0.57279620  0.04895117    -0.76340
O564        O  0.41255149  0.64317689  0.00168692    -0.79830
O565        O  0.36827786  0.59080170  0.32406403    -0.80520
C566        C  0.41567094  0.61890023  0.04241297     0.94740
O567        O  0.47464976  0.56311181  0.48362043    -0.78470
O568        O  0.35322204  0.05286289  0.49573101    -0.83670
C569        C  0.35102240  0.95191387  0.38455005     0.97370
C570        C  0.66207691  0.51959724  0.47491674     1.03280
O571        O  0.35600645  0.98650239  0.35598085    -0.79310
C572        C  0.47758754  0.51319109  0.48905771     1.01580
Fe573      Fe  0.56799816  0.86533429  0.29577298     1.65780
Fe574      Fe  0.59290882  0.76617808  0.24407295     1.73250
Fe575      Fe  0.65215687  0.80467488  0.36259789     1.54410
O576        O  0.67114620  0.87147470  0.34675311    -0.83050
O577        O  0.62588480  0.70531918  0.29993088    -0.81350
O578        O  0.61785093  0.91473903  0.34348655    -0.85550
O579        O  0.55895837  0.84375116  0.35950253    -0.80410
O580        O  0.34614265  0.76794448  0.31264398    -0.82180
O581        O  0.54353022  0.73619604  0.24739161    -0.84930
C582        C  0.58716920  0.85154594  0.40366578     0.95840
C583        C  0.65612566  0.91089766  0.35673628     1.03280
O584        O  0.60197048  0.80928698  0.30340958    -1.13910
O585        O  0.56366650  0.82279429  0.18710165    -0.76340
O586        O  0.57989917  0.89317570  0.23436763    -0.79830
O587        O  0.62417166  0.84080250  0.41198966    -0.80520
C588        C  0.57678048  0.86889908  0.19364103     0.94740
O589        O  0.51780056  0.81311106  0.25243238    -0.78470
O590        O  0.63922953  0.80286296  0.24032549    -0.83670
C591        C  0.64142760  0.70191380  0.35150320     0.97360
C592        C  0.33037405  0.76959702  0.26113851     1.03280
O593        O  0.63644319  0.73650296  0.38007252    -0.79310
C594        C  0.51486273  0.76319031  0.24699488     1.01580
Fe595      Fe  0.59319116  0.98024917  0.49425016     1.65780
Fe596      Fe  0.56745031  0.88166028  0.04577008     1.73250
Fe597      Fe  0.65270390  0.94016140  0.11176572     1.54420
O598        O  0.34651585  0.97672107  0.06154306    -0.83050
O599        O  0.55946587  0.90386882  0.11010702    -0.81350
O600        O  0.63878701  0.94248914  0.48951296    -0.85550
O601        O  0.62719966  0.54029904  0.05067425    -0.80410
O602        O  0.67002901  0.87296959  0.09430466    -0.82180
O603        O  0.51788631  0.93472010  0.00293513    -0.84930
C604        C  0.64303518  0.54322581  0.10231805     0.95840
C605        C  0.33033839  0.97531818  0.01006484     1.03280
O606        O  0.60206808  0.93695633  0.05329773    -1.13910
O607        O  0.57854726  0.85332817  0.48387336    -0.76340
O608        O  0.56316617  0.92406084  0.43709532    -0.79830
O609        O  0.63834898  0.50833737  0.13075346    -0.80520
C610        C  0.57586526  0.87773064  0.44338342     0.94740
O611        O  0.54420679  0.51130524  0.49824065    -0.78470
O612        O  0.61665587  0.83128329  0.09293054    -0.83670
C613        C  0.58789759  0.89507018  0.15384968     0.97370
C614        C  0.65486405  0.83431698  0.10552451     1.03280
O615        O  0.62494560  0.90465452  0.16159246    -0.79350
C616        C  0.51531421  0.98465640  0.49771686     1.01580
Fe617      Fe  0.39925875  0.73024982  0.74180444     1.65780
Fe618      Fe  0.42499977  0.63166007  0.69028389     1.73250
Fe619      Fe  0.33974637  0.69016037  0.62428872     1.54410
O620        O  0.64593424  0.72672108  0.67451097    -0.83050
O621        O  0.43298473  0.65386821  0.62594816    -0.81350
O622        O  0.35366261  0.69248893  0.74653939    -0.85550
O623        O  0.36525050  0.79029919  0.68538029    -0.80410
O624        O  0.65575571  0.62296968  0.64175160    -0.82180
O625        O  0.47456404  0.68471956  0.73311987    -0.84930
C626        C  0.34941468  0.79322535  0.63373632     0.95840
C627        C  0.66211169  0.72531807  0.72598893     1.03280
O628        O  0.39038240  0.68695662  0.68275640    -1.13910
O629        O  0.41390214  0.60332859  0.75217964    -0.76340
O630        O  0.42928245  0.67406197  0.79895922    -0.79830
O631        O  0.35410000  0.75833594  0.60530013    -0.80520
C632        C  0.41658369  0.62773131  0.79267008     0.94740
O633        O  0.44824402  0.76130509  0.73781542    -0.78470
O634        O  0.37579433  0.58128293  0.64312239    -0.83670
C635        C  0.40455321  0.64506990  0.58220490     0.97370
C636        C  0.33758651  0.58431683  0.63053024     1.03280
O637        O  0.36750502  0.65465297  0.57446198    -0.79310
C638        C  0.47713625  0.73465594  0.73833778     1.01580
Fe639      Fe  0.42445213  0.61533497  0.94028073     1.65780
Fe640      Fe  0.39954220  0.51617929  0.99198011     1.73250
Fe641      Fe  0.34029301  0.55467483  0.87345628     1.54410
O642        O  0.32130379  0.62147566  0.88930134    -0.83050
O643        O  0.36656571  0.95531997  0.93612226    -0.81350
O644        O  0.37459922  0.66473929  0.89256784    -0.85550
O645        O  0.43349136  0.59375120  0.87655013    -0.80410
O646        O  0.64630792  0.51794510  0.92341101    -0.82180
O647        O  0.44891967  0.48619692  0.48865906    -0.84930
C648        C  0.40528020  0.60154595  0.83238745     0.95840
C649        C  0.33632433  0.66089795  0.87931749     1.03280
O650        O  0.39047963  0.55928773  0.93264399    -1.13910
O651        O  0.42878590  0.57279620  0.54895116    -0.76340
O652        O  0.41255147  0.64317689  0.50168691    -0.79830
O653        O  0.36827785  0.59080171  0.82406404    -0.80520
C654        C  0.41567092  0.61890022  0.54241296     0.94740
O655        O  0.47464976  0.56311181  0.98362042    -0.78470
O656        O  0.35322204  0.05286290  0.99573101    -0.83670
C657        C  0.35102240  0.95191388  0.88455005     0.97370
C658        C  0.66207691  0.51959724  0.97491673     1.03280
O659        O  0.35600645  0.98650240  0.85598086    -0.79310
C660        C  0.47758754  0.51319109  0.98905770     1.01580
Fe661      Fe  0.56799814  0.86533429  0.79577296     1.65780
Fe662      Fe  0.59290880  0.76617807  0.74407294     1.73250
Fe663      Fe  0.65215685  0.80467488  0.86259788     1.54410
O664        O  0.67114617  0.87147470  0.84675309    -0.83050
O665        O  0.62588478  0.70531918  0.79993087    -0.81350
O666        O  0.61785091  0.91473903  0.84348654    -0.85550
O667        O  0.55895836  0.84375117  0.85950252    -0.80410
O668        O  0.34614265  0.76794448  0.81264397    -0.82180
O669        O  0.54353020  0.73619604  0.74739160    -0.84930
C670        C  0.58716918  0.85154594  0.90366577     0.95840
C671        C  0.65612564  0.91089767  0.85673626     1.03280
O672        O  0.60197046  0.80928698  0.80340957    -1.13910
O673        O  0.56366648  0.82279429  0.68710164    -0.76340
O674        O  0.57989915  0.89317570  0.73436762    -0.79830
O675        O  0.62417165  0.84080250  0.91198965    -0.80520
C676        C  0.57678046  0.86889907  0.69364102     0.94740
O677        O  0.51780054  0.81311106  0.75243237    -0.78470
O678        O  0.63922951  0.80286296  0.74032547    -0.83670
C679        C  0.64142759  0.70191380  0.85150319     0.97360
C680        C  0.33037404  0.76959702  0.76113850     1.03280
O681        O  0.63644318  0.73650297  0.88007251    -0.79310
C682        C  0.51486270  0.76319031  0.74699487     1.01580
Fe683      Fe  0.59319115  0.98024917  0.99425016     1.65780
Fe684      Fe  0.56745031  0.88166028  0.54577007     1.73250
Fe685      Fe  0.65270390  0.94016139  0.61176573     1.54420
O686        O  0.34651583  0.97672106  0.56154305    -0.83050
O687        O  0.55946586  0.90386882  0.61010701    -0.81350
O688        O  0.63878700  0.94248915  0.98951295    -0.85550
O689        O  0.62719966  0.54029903  0.55067426    -0.80410
O690        O  0.67002901  0.87296958  0.59430465    -0.82180
O691        O  0.51788632  0.93472010  0.50293512    -0.84930
C692        C  0.64303519  0.54322580  0.60231807     0.95840
C693        C  0.33033838  0.97531817  0.51006483     1.03280
O694        O  0.60206808  0.93695632  0.55329773    -1.13910
O695        O  0.57854726  0.85332817  0.98387336    -0.76340
O696        O  0.56316616  0.92406084  0.93709532    -0.79830
O697        O  0.63834899  0.50833735  0.63075347    -0.80520
C698        C  0.57586525  0.87773064  0.94338342     0.94740
O699        O  0.54420679  0.51130523  0.99824064    -0.78470
O700        O  0.61665586  0.83128329  0.59293053    -0.83670
C701        C  0.58789758  0.89507017  0.65384967     0.97370
C702        C  0.65486404  0.83431697  0.60552450     1.03280
O703        O  0.62494559  0.90465451  0.66159246    -0.79350
C704        C  0.51531421  0.98465640  0.99771686     1.01580
Fe705      Fe  0.73259209  0.23024983  0.24180445     1.65780
Fe706      Fe  0.75833310  0.13166007  0.19028389     1.73250
Fe707      Fe  0.67307971  0.19016038  0.12428873     1.54410
O708        O  0.97926759  0.22672106  0.17451097    -0.83050
O709        O  0.76631807  0.15386821  0.12594816    -0.81350
O710        O  0.68699596  0.19248894  0.24653941    -0.85550
O711        O  0.69858384  0.29029920  0.18538030    -0.80410
O712        O  0.98908906  0.12296967  0.14175159    -0.82180
O713        O  0.80789738  0.18471956  0.23311988    -0.84930
C714        C  0.68274802  0.29322536  0.13373634     0.95840
C715        C  0.99544504  0.22531805  0.22598893     1.03280
O716        O  0.72371573  0.18695662  0.18275641    -1.13910
O717        O  0.74723548  0.10332859  0.25217965    -0.76340
O718        O  0.76261579  0.17406197  0.29895923    -0.79830
O719        O  0.68743333  0.25833594  0.10530015    -0.80520
C720        C  0.74991703  0.12773132  0.29267009     0.94740
O721        O  0.78157736  0.26130509  0.23781542    -0.78470
O722        O  0.70912766  0.08128293  0.14312239    -0.83670
C723        C  0.73788654  0.14506991  0.08220490     0.97370
C724        C  0.67091984  0.08431684  0.13053025     1.03280
O725        O  0.70083836  0.15465297  0.07446199    -0.79310
C726        C  0.81046959  0.23465594  0.23833778     1.01580
Fe727      Fe  0.75778546  0.11533497  0.44028074     1.65780
Fe728      Fe  0.73287555  0.01617929  0.49198012     1.73250
Fe729      Fe  0.67362635  0.05467483  0.37345629     1.54410
O730        O  0.65463713  0.12147565  0.38930135    -0.83050
O731        O  0.69989904  0.45531997  0.43612227    -0.81350
O732        O  0.70793255  0.16473929  0.39256785    -0.85550
O733        O  0.76682470  0.09375122  0.37655014    -0.80410
O734        O  0.97964126  0.01794508  0.42341100    -0.82180
O735        O  0.78225300  0.98619692  0.98865906    -0.84930
C736        C  0.73861354  0.10154596  0.33238746     0.95840
C737        C  0.66965766  0.16089795  0.37931750     1.03280
O738        O  0.72381297  0.05928774  0.43264400    -1.13910
O739        O  0.76211924  0.07279620  0.04895117    -0.76340
O740        O  0.74588481  0.14317689  0.00168692    -0.79830
O741        O  0.70161119  0.09080171  0.32406404    -0.80520
C742        C  0.74900425  0.11890023  0.04241297     0.94740
O743        O  0.80798311  0.06311182  0.48362042    -0.78470
O744        O  0.68655538  0.55286288  0.49573102    -0.83670
C745        C  0.68435573  0.45191388  0.38455006     0.97370
C746        C  0.99541025  0.01959722  0.47491672     1.03280
O747        O  0.68933978  0.48650240  0.35598086    -0.79310
C748        C  0.81092089  0.01319110  0.48905770     1.01580
Fe749      Fe  0.90133149  0.36533428  0.29577296     1.65780
Fe750      Fe  0.92624214  0.26617806  0.24407293     1.73250
Fe751      Fe  0.98549019  0.30467486  0.36259788     1.54410
O752        O  0.00447952  0.37147468  0.34675310    -0.83050
O753        O  0.95921811  0.20531917  0.29993086    -0.81350
O754        O  0.95118426  0.41473901  0.34348654    -0.85550
O755        O  0.89229170  0.34375115  0.35950251    -0.80410
O756        O  0.67947597  0.26794448  0.31264399    -0.82180
O757        O  0.87686353  0.23619604  0.24739159    -0.84930
C758        C  0.92050252  0.35154592  0.40366576     0.95840
C759        C  0.98945899  0.41089765  0.35673626     1.03280
O760        O  0.93530380  0.30928697  0.30340956    -1.13910
O761        O  0.89699982  0.32279428  0.18710163    -0.76340
O762        O  0.91323250  0.39317568  0.23436762    -0.79830
O763        O  0.95750499  0.34080248  0.41198965    -0.80520
C764        C  0.91011381  0.36889907  0.19364102     0.94740
O765        O  0.85113388  0.31311106  0.25243236    -0.78470
O766        O  0.97256285  0.30286294  0.24032547    -0.83670
C767        C  0.97476092  0.20191378  0.35150318     0.97360
C768        C  0.66370737  0.26959703  0.26113851     1.03280
O769        O  0.96977651  0.23650294  0.38007250    -0.79310
C770        C  0.84819604  0.26319030  0.24699486     1.01580
Fe771      Fe  0.92652449  0.48024916  0.49425016     1.65780
Fe772      Fe  0.90078365  0.38166027  0.04577007     1.73250
Fe773      Fe  0.98603724  0.44016138  0.11176572     1.54420
O774        O  0.67984916  0.47672106  0.06154306    -0.83050
O775        O  0.89279920  0.40386881  0.11010701    -0.81350
O776        O  0.97212034  0.44248913  0.48951294    -0.85550
O777        O  0.96053300  0.04029902  0.05067425    -0.80410
O778        O  0.00336235  0.37296957  0.09430464    -0.82180
O779        O  0.85121965  0.43472009  0.00293512    -0.84930
C780        C  0.97636852  0.04322579  0.10231805     0.95840
C781        C  0.66367171  0.47531818  0.01006484     1.03280
O782        O  0.93540142  0.43695632  0.05329772    -1.13910
O783        O  0.91188059  0.35332815  0.48387335    -0.76340
O784        O  0.89649950  0.42406083  0.43709531    -0.79830
O785        O  0.97168233  0.00833735  0.13075346    -0.80520
C786        C  0.90919858  0.37773062  0.44338341     0.94740
O787        O  0.87754014  0.01130524  0.49824064    -0.78470
O788        O  0.94998920  0.33128328  0.09293053    -0.83670
C789        C  0.92123093  0.39507016  0.15384967     0.97370
C790        C  0.98819738  0.33431696  0.10552450     1.03280
O791        O  0.95827893  0.40465451  0.16159246    -0.79350
C792        C  0.84864755  0.48465639  0.49771686     1.01580
Fe793      Fe  0.73259209  0.23024983  0.74180445     1.65780
Fe794      Fe  0.75833311  0.13166007  0.69028390     1.73250
Fe795      Fe  0.67307971  0.19016037  0.62428873     1.54410
O796        O  0.97926759  0.22672106  0.67451097    -0.83050
O797        O  0.76631808  0.15386820  0.62594817    -0.81350
O798        O  0.68699596  0.19248894  0.74653940    -0.85550
O799        O  0.69858383  0.29029919  0.68538029    -0.80410
O800        O  0.98908906  0.12296967  0.64175160    -0.82180
O801        O  0.80789738  0.18471957  0.73311988    -0.84930
C802        C  0.68274802  0.29322535  0.63373633     0.95840
C803        C  0.99544504  0.22531805  0.72598894     1.03280
O804        O  0.72371574  0.18695662  0.68275641    -1.13910
O805        O  0.74723548  0.10332859  0.75217965    -0.76340
O806        O  0.76261579  0.17406198  0.79895923    -0.79830
O807        O  0.68743333  0.25833594  0.60530014    -0.80520
C808        C  0.74991703  0.12773132  0.79267009     0.94740
O809        O  0.78157737  0.26130510  0.73781542    -0.78470
O810        O  0.70912767  0.08128293  0.64312240    -0.83670
C811        C  0.73788656  0.14506990  0.58220491     0.97370
C812        C  0.67091986  0.08431683  0.63053026     1.03280
O813        O  0.70083837  0.15465296  0.57446200    -0.79310
C814        C  0.81046960  0.23465594  0.73833779     1.01580
Fe815      Fe  0.75778545  0.11533497  0.94028073     1.65780
Fe816      Fe  0.73287553  0.01617929  0.99198011     1.73250
Fe817      Fe  0.67362634  0.05467483  0.87345628     1.54410
O818        O  0.65463712  0.12147565  0.88930134    -0.83050
O819        O  0.69989904  0.45531997  0.93612225    -0.81350
O820        O  0.70793254  0.16473929  0.89256785    -0.85550
O821        O  0.76682469  0.09375121  0.87655014    -0.80410
O822        O  0.97964127  0.01794509  0.92341101    -0.82180
O823        O  0.78225302  0.98619693  0.48865906    -0.84930
C824        C  0.73861354  0.10154596  0.83238746     0.95840
C825        C  0.66965766  0.16089795  0.87931749     1.03280
O826        O  0.72381296  0.05928773  0.93264399    -1.13910
O827        O  0.76211926  0.07279621  0.54895117    -0.76340
O828        O  0.74588483  0.14317690  0.50168693    -0.79830
O829        O  0.70161119  0.09080171  0.82406404    -0.80520
C830        C  0.74900427  0.11890023  0.54241298     0.94740
O831        O  0.80798309  0.06311181  0.98362043    -0.78470
O832        O  0.68655538  0.55286289  0.99573101    -0.83670
C833        C  0.68435572  0.45191388  0.88455004     0.97370
C834        C  0.99541026  0.01959722  0.97491673     1.03280
O835        O  0.68933977  0.48650240  0.85598085    -0.79310
C836        C  0.81092087  0.01319109  0.98905771     1.01580
Fe837      Fe  0.90133149  0.36533428  0.79577297     1.65780
Fe838      Fe  0.92624215  0.26617806  0.74407294     1.73250
Fe839      Fe  0.98549020  0.30467486  0.86259789     1.54410
O840        O  0.00447953  0.37147469  0.84675311    -0.83050
O841        O  0.95921812  0.20531917  0.79993087    -0.81350
O842        O  0.95118427  0.41473902  0.84348655    -0.85550
O843        O  0.89229170  0.34375116  0.85950252    -0.80410
O844        O  0.67947597  0.26794448  0.81264397    -0.82180
O845        O  0.87686354  0.23619604  0.74739161    -0.84930
C846        C  0.92050253  0.35154593  0.90366577     0.95840
C847        C  0.98945900  0.41089765  0.85673627     1.03280
O848        O  0.93530381  0.30928697  0.80340957    -1.13910
O849        O  0.89699983  0.32279428  0.68710164    -0.76340
O850        O  0.91323251  0.39317569  0.73436763    -0.79830
O851        O  0.95750499  0.34080249  0.91198965    -0.80520
C852        C  0.91011382  0.36889907  0.69364102     0.94740
O853        O  0.85113389  0.31311106  0.75243237    -0.78470
O854        O  0.97256286  0.30286294  0.74032548    -0.83670
C855        C  0.97476093  0.20191379  0.85150319     0.97360
C856        C  0.66370736  0.26959702  0.76113850     1.03280
O857        O  0.96977652  0.23650295  0.88007251    -0.79310
C858        C  0.84819605  0.26319031  0.74699487     1.01580
Fe859      Fe  0.92652449  0.48024916  0.99425016     1.65780
Fe860      Fe  0.90078365  0.38166027  0.54577007     1.73250
Fe861      Fe  0.98603724  0.44016137  0.61176571     1.54420
O862        O  0.67984916  0.47672105  0.56154306    -0.83050
O863        O  0.89279920  0.40386881  0.61010701    -0.81350
O864        O  0.97212034  0.44248914  0.98951294    -0.85550
O865        O  0.96053301  0.04029902  0.55067425    -0.80410
O866        O  0.00336234  0.37296956  0.59430464    -0.82180
O867        O  0.85121965  0.43472009  0.50293513    -0.84930
C868        C  0.97636853  0.04322579  0.60231805     0.95840
C869        C  0.66367170  0.47531817  0.51006484     1.03280
O870        O  0.93540142  0.43695631  0.55329772    -1.13910
O871        O  0.91188060  0.35332816  0.98387335    -0.76340
O872        O  0.89649950  0.42406083  0.93709531    -0.79830
O873        O  0.97168233  0.00833735  0.63075346    -0.80520
C874        C  0.90919859  0.37773063  0.94338342     0.94740
O875        O  0.87754013  0.01130523  0.99824065    -0.78470
O876        O  0.94998920  0.33128328  0.59293053    -0.83670
C877        C  0.92123093  0.39507016  0.65384967     0.97370
C878        C  0.98819738  0.33431696  0.60552449     1.03280
O879        O  0.95827893  0.40465450  0.66159246    -0.79350
C880        C  0.84864754  0.48465640  0.99771686     1.01580
Fe881      Fe  0.73259209  0.73024982  0.24180445     1.65780
Fe882      Fe  0.75833311  0.63166007  0.19028390     1.73250
Fe883      Fe  0.67307971  0.69016037  0.12428873     1.54410
O884        O  0.97926759  0.72672106  0.17451097    -0.83050
O885        O  0.76631807  0.65386820  0.12594817    -0.81350
O886        O  0.68699596  0.69248894  0.24653940    -0.85550
O887        O  0.69858384  0.79029919  0.18538030    -0.80410
O888        O  0.98908906  0.62296967  0.14175160    -0.82180
O889        O  0.80789738  0.68471955  0.23311988    -0.84930
C890        C  0.68274802  0.79322536  0.13373633     0.95840
C891        C  0.99544504  0.72531805  0.22598893     1.03280
O892        O  0.72371574  0.68695662  0.18275641    -1.13910
O893        O  0.74723548  0.60332859  0.25217965    -0.76340
O894        O  0.76261579  0.67406197  0.29895923    -0.79830
O895        O  0.68743334  0.75833594  0.10530014    -0.80520
C896        C  0.74991703  0.62773132  0.29267009     0.94740
O897        O  0.78157737  0.76130509  0.23781542    -0.78470
O898        O  0.70912766  0.58128293  0.14312239    -0.83670
C899        C  0.73788655  0.64506990  0.08220490     0.97370
C900        C  0.67091984  0.58431684  0.13053025     1.03280
O901        O  0.70083836  0.65465297  0.07446199    -0.79310
C902        C  0.81046960  0.73465593  0.23833778     1.01580
Fe903      Fe  0.75778546  0.61533497  0.44028074     1.65780
Fe904      Fe  0.73287554  0.51617929  0.49198012     1.73250
Fe905      Fe  0.67362634  0.55467483  0.37345629     1.54410
O906        O  0.65463713  0.62147565  0.38930135    -0.83050
O907        O  0.69989905  0.95531997  0.43612227    -0.81350
O908        O  0.70793255  0.66473929  0.39256785    -0.85550
O909        O  0.76682469  0.59375121  0.37655014    -0.80410
O910        O  0.97964126  0.51794508  0.42341100    -0.82180
O911        O  0.78225301  0.48619692  0.98865905    -0.84930
C912        C  0.73861354  0.60154595  0.33238746     0.95840
C913        C  0.66965767  0.66089795  0.37931750     1.03280
O914        O  0.72381296  0.55928773  0.43264400    -1.13910
O915        O  0.76211924  0.57279620  0.04895117    -0.76340
O916        O  0.74588481  0.64317689  0.00168692    -0.79830
O917        O  0.70161119  0.59080171  0.32406405    -0.80520
C918        C  0.74900426  0.61890022  0.04241297     0.94740
O919        O  0.80798310  0.56311181  0.48362043    -0.78470
O920        O  0.68655539  0.05286288  0.49573103    -0.83670
C921        C  0.68435574  0.95191388  0.38455006     0.97370
C922        C  0.99541025  0.51959722  0.47491672     1.03280
O923        O  0.68933979  0.98650240  0.35598086    -0.79310
C924        C  0.81092088  0.51319109  0.48905771     1.01580
Fe925      Fe  0.90133149  0.86533427  0.29577297     1.65780
Fe926      Fe  0.92624215  0.76617806  0.24407294     1.73250
Fe927      Fe  0.98549019  0.80467486  0.36259788     1.54410
O928        O  0.00447953  0.87147468  0.34675310    -0.83050
O929        O  0.95921812  0.70531916  0.29993086    -0.81350
O930        O  0.95118426  0.91473901  0.34348654    -0.85550
O931        O  0.89229170  0.84375114  0.35950252    -0.80410
O932        O  0.67947598  0.76794448  0.31264399    -0.82180
O933        O  0.87686354  0.73619603  0.24739160    -0.84930
C934        C  0.92050253  0.85154592  0.40366577     0.95840
C935        C  0.98945899  0.91089765  0.35673627     1.03280
O936        O  0.93530381  0.80928697  0.30340956    -1.13910
O937        O  0.89699982  0.82279428  0.18710164    -0.76340
O938        O  0.91323250  0.89317568  0.23436763    -0.79830
O939        O  0.95750499  0.84080248  0.41198965    -0.80520
C940        C  0.91011381  0.86889906  0.19364102     0.94740
O941        O  0.85113389  0.81311105  0.25243237    -0.78470
O942        O  0.97256286  0.80286294  0.24032547    -0.83670
C943        C  0.97476093  0.70191378  0.35150318     0.97360
C944        C  0.66370738  0.76959703  0.26113851     1.03280
O945        O  0.96977652  0.73650294  0.38007250    -0.79310
C946        C  0.84819605  0.76319030  0.24699487     1.01580
Fe947      Fe  0.92652450  0.98024916  0.49425016     1.65780
Fe948      Fe  0.90078364  0.88166027  0.04577008     1.73250
Fe949      Fe  0.98603724  0.94016138  0.11176572     1.54420
O950        O  0.67984916  0.97672107  0.06154305    -0.83050
O951        O  0.89279920  0.90386881  0.11010701    -0.81350
O952        O  0.97212035  0.94248913  0.48951295    -0.85550
O953        O  0.96053301  0.54029902  0.05067425    -0.80410
O954        O  0.00336234  0.87296957  0.09430464    -0.82180
O955        O  0.85121965  0.93472009  0.00293513    -0.84930
C956        C  0.97636853  0.54322579  0.10231805     0.95840
C957        C  0.66367170  0.97531818  0.01006483     1.03280
O958        O  0.93540141  0.93695631  0.05329773    -1.13910
O959        O  0.91188060  0.85332816  0.48387335    -0.76340
O960        O  0.89649951  0.92406083  0.43709531    -0.79830
O961        O  0.97168233  0.50833735  0.13075346    -0.80520
C962        C  0.90919859  0.87773062  0.44338342     0.94740
O963        O  0.87754013  0.51130523  0.49824065    -0.78470
O964        O  0.94998920  0.83128328  0.09293053    -0.83670
C965        C  0.92123093  0.89507016  0.15384967     0.97370
C966        C  0.98819738  0.83431696  0.10552450     1.03280
O967        O  0.95827893  0.90465450  0.16159246    -0.79350
C968        C  0.84864755  0.98465640  0.49771686     1.01580
Fe969      Fe  0.73259209  0.73024983  0.74180445     1.65780
Fe970      Fe  0.75833311  0.63166007  0.69028390     1.73250
Fe971      Fe  0.67307971  0.69016037  0.62428873     1.54410
O972        O  0.97926759  0.72672106  0.67451098    -0.83050
O973        O  0.76631807  0.65386821  0.62594817    -0.81350
O974        O  0.68699596  0.69248894  0.74653940    -0.85550
O975        O  0.69858383  0.79029919  0.68538030    -0.80410
O976        O  0.98908906  0.62296967  0.64175160    -0.82180
O977        O  0.80789738  0.68471957  0.73311988    -0.84930
C978        C  0.68274802  0.79322535  0.63373633     0.95840
C979        C  0.99544504  0.72531805  0.72598894     1.03280
O980        O  0.72371574  0.68695662  0.68275641    -1.13910
O981        O  0.74723548  0.60332859  0.75217965    -0.76340
O982        O  0.76261579  0.67406198  0.79895923    -0.79830
O983        O  0.68743333  0.75833594  0.60530014    -0.80520
C984        C  0.74991703  0.62773132  0.79267009     0.94740
O985        O  0.78157736  0.76130510  0.73781542    -0.78470
O986        O  0.70912766  0.58128293  0.64312240    -0.83670
C987        C  0.73788655  0.64506990  0.58220491     0.97370
C988        C  0.67091985  0.58431683  0.63053026     1.03280
O989        O  0.70083837  0.65465296  0.57446200    -0.79310
C990        C  0.81046959  0.73465594  0.73833778     1.01580
Fe991      Fe  0.75778545  0.61533497  0.94028073     1.65780
Fe992      Fe  0.73287553  0.51617929  0.99198011     1.73250
Fe993      Fe  0.67362634  0.55467484  0.87345628     1.54410
O994        O  0.65463712  0.62147566  0.88930134    -0.83050
O995        O  0.69989903  0.95531997  0.93612225    -0.81350
O996        O  0.70793254  0.66473929  0.89256785    -0.85550
O997        O  0.76682469  0.59375121  0.87655014    -0.80410
O998        O  0.97964127  0.51794509  0.92341101    -0.82180
O999        O  0.78225301  0.48619692  0.48865906    -0.84930
C1000       C  0.73861353  0.60154596  0.83238745     0.95840
C1001       C  0.66965766  0.66089795  0.87931749     1.03280
O1002       O  0.72381296  0.55928774  0.93264399    -1.13910
O1003       O  0.76211925  0.57279620  0.54895117    -0.76340
O1004       O  0.74588482  0.64317689  0.50168693    -0.79830
O1005       O  0.70161119  0.59080172  0.82406404    -0.80520
C1006       C  0.74900426  0.61890022  0.54241298     0.94740
O1007       O  0.80798310  0.56311182  0.98362042    -0.78470
O1008       O  0.68655537  0.05286289  0.99573100    -0.83670
C1009       C  0.68435572  0.95191388  0.88455004     0.97370
C1010       C  0.99541026  0.51959722  0.97491672     1.03280
O1011       O  0.68933977  0.98650240  0.85598085    -0.79310
C1012       C  0.81092088  0.51319109  0.98905770     1.01580
Fe1013     Fe  0.90133149  0.86533428  0.79577297     1.65780
Fe1014     Fe  0.92624215  0.76617807  0.74407294     1.73250
Fe1015     Fe  0.98549019  0.80467486  0.86259789     1.54410
O1016       O  0.00447953  0.87147468  0.84675312    -0.83050
O1017       O  0.95921811  0.70531917  0.79993086    -0.81350
O1018       O  0.95118427  0.91473902  0.84348655    -0.85550
O1019       O  0.89229170  0.84375116  0.85950251    -0.80410
O1020       O  0.67947597  0.76794448  0.81264398    -0.82180
O1021       O  0.87686353  0.73619605  0.74739160    -0.84930
C1022       C  0.92050252  0.85154593  0.90366577     0.95840
C1023       C  0.98945899  0.91089765  0.85673627     1.03280
O1024       O  0.93530381  0.80928698  0.80340957    -1.13910
O1025       O  0.89699983  0.82279429  0.68710164    -0.76340
O1026       O  0.91323251  0.89317569  0.73436763    -0.79830
O1027       O  0.95750499  0.84080248  0.91198965    -0.80520
C1028       C  0.91011382  0.86889907  0.69364102     0.94740
O1029       O  0.85113389  0.81311106  0.75243237    -0.78470
O1030       O  0.97256286  0.80286294  0.74032548    -0.83670
C1031       C  0.97476092  0.70191378  0.85150318     0.97360
C1032       C  0.66370736  0.76959702  0.76113850     1.03280
O1033       O  0.96977651  0.73650294  0.88007250    -0.79310
C1034       C  0.84819605  0.76319031  0.74699487     1.01580
Fe1035     Fe  0.92652449  0.98024916  0.99425016     1.65780
Fe1036     Fe  0.90078365  0.88166027  0.54577008     1.73250
Fe1037     Fe  0.98603725  0.94016138  0.61176572     1.54420
O1038       O  0.67984917  0.97672106  0.56154307    -0.83050
O1039       O  0.89279921  0.90386882  0.61010701    -0.81350
O1040       O  0.97212034  0.94248914  0.98951294    -0.85550
O1041       O  0.96053301  0.54029902  0.55067425    -0.80410
O1042       O  0.00336235  0.87296957  0.59430465    -0.82180
O1043       O  0.85121966  0.93472010  0.50293513    -0.84930
C1044       C  0.97636853  0.54322579  0.60231806     0.95840
C1045       C  0.66367172  0.97531817  0.51006485     1.03280
O1046       O  0.93540142  0.93695632  0.55329773    -1.13910
O1047       O  0.91188059  0.85332816  0.98387335    -0.76340
O1048       O  0.89649950  0.92406083  0.93709531    -0.79830
O1049       O  0.97168234  0.50833734  0.63075346    -0.80520
C1050       C  0.90919858  0.87773063  0.94338342     0.94740
O1051       O  0.87754013  0.51130523  0.99824064    -0.78470
O1052       O  0.94998921  0.83128328  0.59293053    -0.83670
C1053       C  0.92123094  0.89507017  0.65384967     0.97370
C1054       C  0.98819738  0.83431696  0.60552450     1.03280
O1055       O  0.95827894  0.90465451  0.66159246    -0.79350
C1056       C  0.84864754  0.98465639  0.99771686     1.01580
loop_ 
_geom_bond_atom_site_label_1 
_geom_bond_atom_site_label_2 
_geom_bond_distance 
_geom_bond_site_symmetry_2 
_ccdc_geom_bond_type 
Fe1          O17   2.004       .  S
Fe1           O7   2.204       .  S
Fe1          O14   2.106       .  S
Fe1           O6   1.981       .  S
Fe1          O12   1.891       .  S
Fe2           O5   1.981       .  S
Fe2           O9   2.207       .  S
Fe2          O13   2.031       .  S
Fe2          O18   2.184       .  S
Fe2          O12   1.876       .  S
Fe3          O21   2.200       .  S
Fe3          O15   1.985       .  S
Fe3         O712   1.989   1_455  S
Fe3         O708   2.205   1_455  S
Fe3          O12   1.901       .  S
O4         Fe355   2.205       .  S
O4           C11   1.292       .  A
O5           C19   1.252       .  A
O6          C715   1.212   1_455  A
O7           C10   1.297       .  A
O8         Fe355   1.989       .  S
O8          C372   1.248       .  A
O9           C22   1.313       .  A
C10          O15   1.254       .  A
C10         C790   1.469   1_455  S
C11         O358   1.212       .  A
C11         C416   1.491       .  S
O13          C16   1.247       .  A
O14          C16   1.284       .  A
C16          C32   1.475       .  S
O17          C22   1.258       .  A
O18          C20   1.297       .  A
C19          O21   1.305       .  A
C19          C38   1.472       .  S
C20         O712   1.248   1_455  A
C20         C780   1.469   1_455  S
C22          C66   1.498       .  S
Fe23         O39   2.211       .  S
Fe23         O29   1.980       .  S
Fe23         O28   2.187       .  S
Fe23        O124   2.029       .  S
Fe23         O34   1.876       .  S
Fe24        O203   2.201   1_545  S
Fe24        O119   1.998   1_545  S
Fe24        O123   2.105       .  S
Fe24        O216   1.980       .  S
Fe24         O34   1.893       .  S
Fe25         O37   2.204       .  S
Fe25         O26   1.989   1_455  S
Fe25        O219   1.988   1_545  S
Fe25        O734   2.206   1_455  S
Fe25         O34   1.902       .  S
O26          C33   1.248   1_655  A
O27        Fe200   2.201       .  S
O27          C41   1.296       .  A
O28          C33   1.298       .  A
O29          C32   1.252       .  A
O30        Fe377   2.206       .  S
O30          C42   1.292       .  A
O31        Fe112   1.998   1_565  S
O31         C132   1.258   1_565  A
C32          O37   1.306       .  A
C33         C767   1.471   1_455  S
O35        Fe112   2.105   1_554  S
O35          C38   1.283       .  A
O36        Fe111   2.029   1_554  S
O36          C38   1.247       .  A
O39          C44   1.313       .  A
O40        Fe200   1.980       .  S
O40         C922   1.213   1_455  A
C41          O43   1.255       .  A
C41         C759   1.471   1_455  S
C42         O568   1.213       .  A
C42         C693   1.491   1_545  S
O43        Fe201   1.988       .  S
C44         O119   1.258   1_545  A
C44         C264   1.498   1_545  S
Fe45         O61   2.211       .  S
Fe45         O51   1.980       .  S
Fe45         O58   2.029       .  S
Fe45         O50   2.187       .  S
Fe45         O56   1.876       .  S
Fe46         O49   2.201       .  S
Fe46         O53   1.998       .  S
Fe46         O57   2.105       .  S
Fe46         O62   1.980       .  S
Fe46         O56   1.893       .  S
Fe47         O65   1.988       .  S
Fe47         O59   2.204       .  S
Fe47         O48   1.989       .  S
Fe47        O404   2.206       .  S
Fe47         O56   1.902       .  S
O48          C55   1.248       .  A
O49          C63   1.296       .  A
O50          C55   1.298       .  A
O51          C54   1.252       .  A
O52        Fe751   2.206   1_455  S
O52          C64   1.292   1_455  A
O53          C66   1.258       .  A
C54          O59   1.306       .  A
C54          C82   1.475       .  S
C55         C393   1.471       .  S
O57          C60   1.283       .  A
O58          C60   1.247       .  A
C60          C85   1.472       .  S
O61          C66   1.313       .  A
O62         C416   1.213       .  A
C63          O65   1.255       .  A
C63         C385   1.471       .  S
C64         O766   1.213       .  A
C64         C715   1.491       .  S
Fe67         O80   2.106       .  S
Fe67         O72   1.981       .  S
Fe67        O259   2.004       .  S
Fe67        O337   2.204       .  S
Fe67        O166   1.891       .  S
Fe68         O71   1.981       .  S
Fe68         O75   2.207       .  S
Fe68         O84   2.184       .  S
Fe68        O167   2.031   1_554  S
Fe68         O78   1.876       .  S
Fe69         O87   2.200       .  S
Fe69         O74   1.989       .  S
Fe69        O257   1.985       .  S
Fe69        O422   2.205       .  S
Fe69         O78   1.901       .  S
O70        Fe773   2.205   1_455  S
O70          C77   1.292   1_455  A
O71          C85   1.252       .  A
O72         C517   1.212       .  A
O73        Fe331   2.204   1_544  S
O73          C76   1.297       .  A
O74          C86   1.248       .  A
O75         C176   1.313   1_554  A
C76          O81   1.254       .  A
C76         C372   1.469       .  S
C77         O864   1.212   1_554  A
C77        C1010   1.491   1_554  S
O78        Fe155   1.891   1_554  S
O79        Fe156   2.031       .  S
O79          C82   1.247       .  A
O80          C82   1.284       .  A
O81        Fe245   1.985   1_545  S
O83        Fe243   2.004   1_545  S
O83         C264   1.258   1_545  A
O84          C86   1.297       .  A
C85          O87   1.305       .  A
C86         C362   1.469       .  S
C88         O163   1.313       .  A
C88         O259   1.258       .  A
C88         C220   1.498       .  S
Fe89        O105   2.004       .  S
Fe89         O95   2.204       .  S
Fe89        O102   2.106       .  S
Fe89         O94   1.981       .  S
Fe89        O100   1.891       .  S
Fe90         O93   1.981       .  S
Fe90         O97   2.207       .  S
Fe90        O101   2.031       .  S
Fe90        O106   2.184       .  S
Fe90        O100   1.876       .  S
Fe91        O109   2.200       .  S
Fe91        O800   1.989   1_455  S
Fe91        O103   1.985       .  S
Fe91        O796   2.205   1_455  S
Fe91        O100   1.901       .  S
O92        Fe443   2.205       .  S
O92          C99   1.292       .  A
O93         C107   1.252       .  A
O94         C803   1.212   1_455  A
O95          C98   1.297       .  A
O96        Fe443   1.989       .  S
O96         C460   1.248       .  A
O97         C110   1.313       .  A
C98         O103   1.254       .  A
C98         C878   1.469   1_455  S
C99         O446   1.212       .  A
C99         C504   1.491       .  S
O101        C104   1.247       .  A
O102        C104   1.284       .  A
C104        C120   1.475       .  S
O105        C110   1.258       .  A
O106        C108   1.297       .  A
C107        O109   1.305       .  A
C107        C126   1.472       .  S
C108        O800   1.248   1_455  A
C108        C868   1.469   1_455  S
C110        C154   1.498       .  S
Fe111       O127   2.211       .  S
Fe111       O117   1.980       .  S
Fe111       O116   2.187       .  S
Fe111       O122   1.876       .  S
Fe112       O291   2.201   1_545  S
Fe112       O304   1.980       .  S
Fe112       O122   1.893       .  S
Fe113       O307   1.988   1_545  S
Fe113       O822   2.206   1_455  S
Fe113       O125   2.204       .  S
Fe113       O114   1.989   1_455  S
Fe113       O122   1.902       .  S
O114        C121   1.248   1_655  A
O115       Fe288   2.201       .  S
O115        C129   1.296       .  A
O116        C121   1.298       .  A
O117        C120   1.252       .  A
O118       Fe465   2.206       .  S
O118        C130   1.292       .  A
C120        O125   1.306       .  A
C121        C855   1.471   1_455  S
O123        C126   1.283       .  A
O124        C126   1.247       .  A
O127        C132   1.313       .  A
O128       Fe288   1.980       .  S
O128       C1010   1.213   1_455  A
C129        O131   1.255       .  A
C129        C847   1.471   1_455  S
C130        O656   1.213       .  A
C130        C605   1.491   1_546  S
O131       Fe289   1.988       .  S
C132        C352   1.498   1_545  S
Fe133       O149   2.211       .  S
Fe133       O139   1.980       .  S
Fe133       O146   2.029       .  S
Fe133       O138   2.187       .  S
Fe133       O144   1.876       .  S
Fe134       O137   2.201       .  S
Fe134       O141   1.998       .  S
Fe134       O145   2.105       .  S
Fe134       O150   1.980       .  S
Fe134       O144   1.893       .  S
Fe135       O153   1.988       .  S
Fe135       O492   2.206       .  S
Fe135       O147   2.204       .  S
Fe135       O136   1.989       .  S
Fe135       O144   1.902       .  S
O136        C143   1.248       .  A
O137        C151   1.296       .  A
O138        C143   1.298       .  A
O139        C142   1.252       .  A
O140       Fe839   2.206   1_455  S
O140        C152   1.292   1_455  A
O141        C154   1.258       .  A
C142        O147   1.306       .  A
C142        C170   1.475       .  S
C143        C481   1.471       .  S
O145        C148   1.283       .  A
O146        C148   1.247       .  A
C148        C173   1.472       .  S
O149        C154   1.313       .  A
O150        C504   1.213       .  A
C151        O153   1.255       .  A
C151        C473   1.471       .  S
C152        O854   1.213       .  A
C152        C803   1.491       .  S
Fe155       O347   2.004       .  S
Fe155       O249   2.204   1_556  S
Fe155       O168   2.106       .  S
Fe155       O160   1.981       .  S
Fe156       O159   1.981       .  S
Fe156       O163   2.207       .  S
Fe156       O172   2.184       .  S
Fe156       O166   1.876       .  S
Fe157       O175   2.200       .  S
Fe157       O162   1.989       .  S
Fe157       O345   1.985       .  S
Fe157       O510   2.205       .  S
Fe157       O166   1.901       .  S
O158       Fe861   2.205   1_455  S
O158        C165   1.292   1_455  A
O159        C173   1.252       .  A
O160        C429   1.212   1_556  A
O161       Fe243   2.204   1_545  S
O161        C164   1.297       .  A
O162        C174   1.248       .  A
C164        O169   1.254       .  A
C164        C460   1.469       .  S
C165        O776   1.212       .  A
C165        C922   1.491       .  S
O167        C170   1.247       .  A
O168        C170   1.284       .  A
O169       Fe333   1.985   1_545  S
O171       Fe331   2.004   1_545  S
O171        C352   1.258   1_545  A
O172        C174   1.297       .  A
C173        O175   1.305       .  A
C174        C450   1.469       .  S
C176        O347   1.258       .  A
C176        C308   1.498       .  S
Fe177       O193   2.004       .  S
Fe177       O183   2.204       .  S
Fe177       O190   2.106       .  S
Fe177       O182   1.981       .  S
Fe177       O188   1.891       .  S
Fe178       O181   1.981       .  S
Fe178       O185   2.207       .  S
Fe178       O189   2.031       .  S
Fe178       O194   2.184       .  S
Fe178       O188   1.876       .  S
Fe179       O197   2.200       .  S
Fe179       O888   1.989   1_455  S
Fe179       O191   1.985       .  S
Fe179       O884   2.205   1_455  S
Fe179       O188   1.901       .  S
O180       Fe531   2.205       .  S
O180        C187   1.292       .  A
O181        C195   1.252       .  A
O182        C891   1.212   1_455  A
O183        C186   1.297       .  A
O184       Fe531   1.989       .  S
O184        C548   1.248       .  A
O185        C198   1.313       .  A
C186        O191   1.254       .  A
C186        C966   1.469   1_455  S
C187        O534   1.212       .  A
C187        C592   1.491       .  S
O189        C192   1.247       .  A
O190        C192   1.284       .  A
C192        C208   1.475       .  S
O193        C198   1.258       .  A
O194        C196   1.297       .  A
C195        O197   1.305       .  A
C195        C214   1.472       .  S
C196        O888   1.248   1_455  A
C196        C956   1.469   1_455  S
C198        C242   1.498       .  S
Fe199       O215   2.211       .  S
Fe199       O205   1.980       .  S
Fe199       O300   2.029       .  S
Fe199       O204   2.187       .  S
Fe199       O210   1.876       .  S
Fe200       O295   1.998       .  S
Fe200       O299   2.105       .  S
Fe200       O210   1.893       .  S
Fe201       O910   2.206   1_455  S
Fe201       O213   2.204       .  S
Fe201       O202   1.989   1_455  S
Fe201       O210   1.902       .  S
O202        C209   1.248   1_655  A
O203        C217   1.296       .  A
O204        C209   1.298       .  A
O205        C208   1.252       .  A
O206       Fe553   2.206       .  S
O206        C218   1.292       .  A
O207       Fe288   1.998       .  S
O207        C308   1.258       .  A
C208        O213   1.306       .  A
C209        C943   1.471   1_455  S
O211       Fe288   2.105   1_554  S
O211        C214   1.283       .  A
O212       Fe287   2.029   1_554  S
O212        C214   1.247       .  A
O215        C220   1.313       .  A
O216        C746   1.213   1_455  A
C217        O219   1.255       .  A
C217        C935   1.471   1_455  S
C218        O392   1.213       .  A
C218        C517   1.491       .  S
C220        O295   1.258       .  A
Fe221       O237   2.211       .  S
Fe221       O227   1.980       .  S
Fe221       O234   2.029       .  S
Fe221       O226   2.187       .  S
Fe221       O232   1.876       .  S
Fe222       O225   2.201       .  S
Fe222       O229   1.998       .  S
Fe222       O233   2.105       .  S
Fe222       O238   1.980       .  S
Fe222       O232   1.893       .  S
Fe223       O241   1.988       .  S
Fe223       O580   2.206       .  S
Fe223       O235   2.204       .  S
Fe223       O224   1.989       .  S
Fe223       O232   1.902       .  S
O224        C231   1.248       .  A
O225        C239   1.296       .  A
O226        C231   1.298       .  A
O227        C230   1.252       .  A
O228       Fe927   2.206   1_455  S
O228        C240   1.292   1_455  A
O229        C242   1.258       .  A
C230        O235   1.306       .  A
C230        C258   1.475       .  S
C231        C569   1.471       .  S
O233        C236   1.283       .  A
O234        C236   1.247       .  A
C236        C261   1.472       .  S
O237        C242   1.313       .  A
O238        C592   1.213       .  A
C239        O241   1.255       .  A
C239        C561   1.471       .  S
C240        O942   1.213       .  A
C240        C891   1.491       .  S
Fe243       O256   2.106       .  S
Fe243       O248   1.981       .  S
Fe243       O342   1.891       .  S
Fe244       O247   1.981       .  S
Fe244       O251   2.207       .  S
Fe244       O343   2.031   1_554  S
Fe244       O260   2.184       .  S
Fe244       O254   1.876       .  S
Fe245       O263   2.200       .  S
Fe245       O250   1.989       .  S
Fe245       O598   2.205       .  S
Fe245       O254   1.901       .  S
O246       Fe949   2.205   1_455  S
O246        C253   1.292   1_455  A
O247        C261   1.252       .  A
O248        C693   1.212       .  A
O249        C252   1.297       .  A
O250        C262   1.248       .  A
O251        C352   1.313   1_554  A
C252        O257   1.254       .  A
C252        C548   1.469       .  S
C253       O1040   1.212   1_554  A
C253        C834   1.491   1_564  S
O254       Fe331   1.891   1_554  S
O255       Fe332   2.031       .  S
O255        C258   1.247       .  A
O256        C258   1.284       .  A
O260        C262   1.297       .  A
C261        O263   1.305       .  A
C262        C538   1.469       .  S
C264        O339   1.313       .  A
Fe265       O281   2.004       .  S
Fe265       O271   2.204       .  S
Fe265       O278   2.106       .  S
Fe265       O270   1.981       .  S
Fe265       O276   1.891       .  S
Fe266       O269   1.981       .  S
Fe266       O273   2.207       .  S
Fe266       O277   2.031       .  S
Fe266       O282   2.184       .  S
Fe266       O276   1.876       .  S
Fe267       O285   2.200       .  S
Fe267       O976   1.989   1_455  S
Fe267       O279   1.985       .  S
Fe267       O972   2.205   1_455  S
Fe267       O276   1.901       .  S
O268       Fe619   2.205       .  S
O268        C275   1.292       .  A
O269        C283   1.252       .  A
O270        C979   1.212   1_455  A
O271        C274   1.297       .  A
O272       Fe619   1.989       .  S
O272        C636   1.248       .  A
O273        C286   1.313       .  A
C274        O279   1.254       .  A
C274       C1054   1.469   1_455  S
C275        O622   1.212       .  A
C275        C680   1.491       .  S
O277        C280   1.247       .  A
O278        C280   1.284       .  A
C280        C296   1.475       .  S
O281        C286   1.258       .  A
O282        C284   1.297       .  A
C283        O285   1.305       .  A
C283        C302   1.472       .  S
C284        O976   1.248   1_455  A
C284       C1044   1.469   1_455  S
C286        C330   1.498       .  S
Fe287       O303   2.211       .  S
Fe287       O293   1.980       .  S
Fe287       O292   2.187       .  S
Fe287       O298   1.876       .  S
Fe288       O298   1.893       .  S
Fe289       O998   2.206   1_455  S
Fe289       O301   2.204       .  S
Fe289       O290   1.989   1_455  S
Fe289       O298   1.902       .  S
O290        C297   1.248   1_655  A
O291        C305   1.296       .  A
O292        C297   1.298       .  A
O293        C296   1.252       .  A
O294       Fe641   2.206       .  S
O294        C306   1.292       .  A
C296        O301   1.306       .  A
C297       C1031   1.471   1_455  S
O299        C302   1.283       .  A
O300        C302   1.247       .  A
O303        C308   1.313       .  A
O304        C834   1.213   1_455  A
C305        O307   1.255       .  A
C305       C1023   1.471   1_455  S
C306        O480   1.213       .  A
C306        C429   1.491   1_556  S
Fe309       O325   2.211       .  S
Fe309       O315   1.980       .  S
Fe309       O322   2.029       .  S
Fe309       O314   2.187       .  S
Fe309       O320   1.876       .  S
Fe310       O313   2.201       .  S
Fe310       O317   1.998       .  S
Fe310       O321   2.105       .  S
Fe310       O326   1.980       .  S
Fe310       O320   1.893       .  S
Fe311       O329   1.988       .  S
Fe311       O668   2.206       .  S
Fe311       O323   2.204       .  S
Fe311       O312   1.989       .  S
Fe311       O320   1.902       .  S
O312        C319   1.248       .  A
O313        C327   1.296       .  A
O314        C319   1.298       .  A
O315        C318   1.252       .  A
O316      Fe1015   2.206   1_455  S
O316        C328   1.292   1_455  A
O317        C330   1.258       .  A
C318        O323   1.306       .  A
C318        C346   1.475       .  S
C319        C657   1.471       .  S
O321        C324   1.283       .  A
O322        C324   1.247       .  A
C324        C349   1.472       .  S
O325        C330   1.313       .  A
O326        C680   1.213       .  A
C327        O329   1.255       .  A
C327        C649   1.471       .  S
C328       O1030   1.213       .  A
C328        C979   1.491       .  S
Fe331       O344   2.106       .  S
Fe331       O336   1.981       .  S
Fe332       O335   1.981       .  S
Fe332       O339   2.207       .  S
Fe332       O348   2.184       .  S
Fe332       O342   1.876       .  S
Fe333       O351   2.200       .  S
Fe333       O338   1.989       .  S
Fe333       O686   2.205       .  S
Fe333       O342   1.901       .  S
O334      Fe1037   2.205   1_455  S
O334        C341   1.292   1_455  A
O335        C349   1.252       .  A
O336        C605   1.212   1_556  A
O337        C340   1.297       .  A
O338        C350   1.248       .  A
C340        O345   1.254       .  A
C340        C636   1.469       .  S
C341        O952   1.212       .  A
C341        C746   1.491   1_565  S
O343        C346   1.247       .  A
O344        C346   1.284       .  A
O348        C350   1.297       .  A
C349        O351   1.305       .  A
C350        C626   1.469       .  S
Fe353       O369   2.004       .  S
Fe353       O359   2.204       .  S
Fe353       O366   2.106       .  S
Fe353       O358   1.981       .  S
Fe353       O364   1.891       .  S
Fe354       O357   1.981       .  S
Fe354       O361   2.207       .  S
Fe354       O365   2.031       .  S
Fe354       O370   2.184       .  S
Fe354       O364   1.876       .  S
Fe355       O373   2.200       .  S
Fe355       O367   1.985       .  S
Fe355       O364   1.901       .  S
O356       Fe707   2.205       .  S
O356        C363   1.292       .  A
O357        C371   1.252       .  A
O359        C362   1.297       .  A
O360       Fe707   1.989       .  S
O360        C724   1.248       .  A
O361        C374   1.313       .  A
C362        O367   1.254       .  A
C363        O710   1.212       .  A
C363        C768   1.491       .  S
O365        C368   1.247       .  A
O366        C368   1.284       .  A
C368        C384   1.475       .  S
O369        C374   1.258       .  A
O370        C372   1.297       .  A
C371        O373   1.305       .  A
C371        C390   1.472       .  S
C374        C418   1.498       .  S
Fe375       O391   2.211       .  S
Fe375       O381   1.980       .  S
Fe375       O476   2.029       .  S
Fe375       O380   2.187       .  S
Fe375       O386   1.876       .  S
Fe376       O555   2.201   1_545  S
Fe376       O471   1.998   1_545  S
Fe376       O475   2.105       .  S
Fe376       O568   1.980       .  S
Fe376       O386   1.893       .  S
Fe377       O571   1.988   1_545  S
Fe377       O389   2.204       .  S
Fe377       O378   1.989       .  S
Fe377       O386   1.902       .  S
O378        C385   1.248       .  A
O379       Fe552   2.201       .  S
O379        C393   1.296       .  A
O380        C385   1.298       .  A
O381        C384   1.252       .  A
O382       Fe729   2.206       .  S
O382        C394   1.292       .  A
O383       Fe464   1.998   1_565  S
O383        C484   1.258   1_565  A
C384        O389   1.306       .  A
O387       Fe464   2.105   1_554  S
O387        C390   1.283       .  A
O388       Fe463   2.029   1_554  S
O388        C390   1.247       .  A
O391        C396   1.313       .  A
O392       Fe552   1.980       .  S
C393        O395   1.255       .  A
C394        O920   1.213       .  A
C394       C1045   1.491   1_545  S
O395       Fe553   1.988       .  S
C396        O471   1.258   1_545  A
C396        C616   1.498   1_545  S
Fe397       O413   2.211       .  S
Fe397       O403   1.980       .  S
Fe397       O410   2.029       .  S
Fe397       O402   2.187       .  S
Fe397       O408   1.876       .  S
Fe398       O401   2.201       .  S
Fe398       O405   1.998       .  S
Fe398       O409   2.105       .  S
Fe398       O414   1.980       .  S
Fe398       O408   1.893       .  S
Fe399       O417   1.988       .  S
Fe399       O756   2.206       .  S
Fe399       O411   2.204       .  S
Fe399       O400   1.989       .  S
Fe399       O408   1.902       .  S
O400        C407   1.248       .  A
O401        C415   1.296       .  A
O402        C407   1.298       .  A
O403        C406   1.252       .  A
O404        C416   1.292       .  A
O405        C418   1.258       .  A
C406        O411   1.306       .  A
C406        C434   1.475       .  S
C407        C745   1.471       .  S
O409        C412   1.283       .  A
O410        C412   1.247       .  A
C412        C437   1.472       .  S
O413        C418   1.313       .  A
O414        C768   1.213       .  A
C415        O417   1.255       .  A
C415        C737   1.471       .  S
Fe419       O611   2.004       .  S
Fe419       O689   2.204       .  S
Fe419       O432   2.106       .  S
Fe419       O424   1.981       .  S
Fe419       O518   1.891       .  S
Fe420       O423   1.981       .  S
Fe420       O427   2.207       .  S
Fe420       O519   2.031   1_554  S
Fe420       O436   2.184       .  S
Fe420       O430   1.876       .  S
Fe421       O439   2.200       .  S
Fe421       O426   1.989       .  S
Fe421       O609   1.985       .  S
Fe421       O774   2.205       .  S
Fe421       O430   1.901       .  S
O422        C429   1.292       .  A
O423        C437   1.252       .  A
O424        C869   1.212       .  A
O425       Fe683   2.204   1_544  S
O425        C428   1.297       .  A
O426        C438   1.248       .  A
O427        C528   1.313   1_554  A
C428        O433   1.254       .  A
C428        C724   1.469       .  S
O430       Fe507   1.891   1_554  S
O431       Fe508   2.031       .  S
O431        C434   1.247       .  A
O432        C434   1.284       .  A
O433       Fe597   1.985   1_545  S
O435       Fe595   2.004   1_545  S
O435        C616   1.258   1_545  A
O436        C438   1.297       .  A
C437        O439   1.305       .  A
C438        C714   1.469       .  S
C440        O515   1.313       .  A
C440        O611   1.258       .  A
C440        C572   1.498       .  S
Fe441       O457   2.004       .  S
Fe441       O447   2.204       .  S
Fe441       O454   2.106       .  S
Fe441       O446   1.981       .  S
Fe441       O452   1.891       .  S
Fe442       O445   1.981       .  S
Fe442       O449   2.207       .  S
Fe442       O453   2.031       .  S
Fe442       O458   2.184       .  S
Fe442       O452   1.876       .  S
Fe443       O461   2.200       .  S
Fe443       O455   1.985       .  S
Fe443       O452   1.901       .  S
O444       Fe795   2.205       .  S
O444        C451   1.292       .  A
O445        C459   1.252       .  A
O447        C450   1.297       .  A
O448       Fe795   1.989       .  S
O448        C812   1.248       .  A
O449        C462   1.313       .  A
C450        O455   1.254       .  A
C451        O798   1.212       .  A
C451        C856   1.491       .  S
O453        C456   1.247       .  A
O454        C456   1.284       .  A
C456        C472   1.475       .  S
O457        C462   1.258       .  A
O458        C460   1.297       .  A
C459        O461   1.305       .  A
C459        C478   1.472       .  S
C462        C506   1.498       .  S
Fe463       O479   2.211       .  S
Fe463       O469   1.980       .  S
Fe463       O468   2.187       .  S
Fe463       O474   1.876       .  S
Fe464       O643   2.201   1_545  S
Fe464       O656   1.980       .  S
Fe464       O474   1.893       .  S
Fe465       O659   1.988   1_545  S
Fe465       O477   2.204       .  S
Fe465       O466   1.989       .  S
Fe465       O474   1.902       .  S
O466        C473   1.248       .  A
O467       Fe640   2.201       .  S
O467        C481   1.296       .  A
O468        C473   1.298       .  A
O469        C472   1.252       .  A
O470       Fe817   2.206       .  S
O470        C482   1.292       .  A
C472        O477   1.306       .  A
O475        C478   1.283       .  A
O476        C478   1.247       .  A
O479        C484   1.313       .  A
O480       Fe640   1.980       .  S
C481        O483   1.255       .  A
C482       O1008   1.213       .  A
C482        C957   1.491   1_546  S
O483       Fe641   1.988       .  S
C484        C704   1.498   1_545  S
Fe485       O501   2.211       .  S
Fe485       O491   1.980       .  S
Fe485       O498   2.029       .  S
Fe485       O490   2.187       .  S
Fe485       O496   1.876       .  S
Fe486       O489   2.201       .  S
Fe486       O493   1.998       .  S
Fe486       O497   2.105       .  S
Fe486       O502   1.980       .  S
Fe486       O496   1.893       .  S
Fe487       O505   1.988       .  S
Fe487       O844   2.206       .  S
Fe487       O499   2.204       .  S
Fe487       O488   1.989       .  S
Fe487       O496   1.902       .  S
O488        C495   1.248       .  A
O489        C503   1.296       .  A
O490        C495   1.298       .  A
O491        C494   1.252       .  A
O492        C504   1.292       .  A
O493        C506   1.258       .  A
C494        O499   1.306       .  A
C494        C522   1.475       .  S
C495        C833   1.471       .  S
O497        C500   1.283       .  A
O498        C500   1.247       .  A
C500        C525   1.472       .  S
O501        C506   1.313       .  A
O502        C856   1.213       .  A
C503        O505   1.255       .  A
C503        C825   1.471       .  S
Fe507       O699   2.004       .  S
Fe507       O601   2.204   1_556  S
Fe507       O520   2.106       .  S
Fe507       O512   1.981       .  S
Fe508       O511   1.981       .  S
Fe508       O515   2.207       .  S
Fe508       O524   2.184       .  S
Fe508       O518   1.876       .  S
Fe509       O527   2.200       .  S
Fe509       O514   1.989       .  S
Fe509       O697   1.985       .  S
Fe509       O862   2.205       .  S
Fe509       O518   1.901       .  S
O510        C517   1.292       .  A
O511        C525   1.252       .  A
O512        C781   1.212   1_556  A
O513       Fe595   2.204   1_545  S
O513        C516   1.297       .  A
O514        C526   1.248       .  A
C516        O521   1.254       .  A
C516        C812   1.469       .  S
O519        C522   1.247       .  A
O520        C522   1.284       .  A
O521       Fe685   1.985   1_545  S
O523       Fe683   2.004   1_545  S
O523        C704   1.258   1_545  A
O524        C526   1.297       .  A
C525        O527   1.305       .  A
C526        C802   1.469       .  S
C528        O699   1.258       .  A
C528        C660   1.498       .  S
Fe529       O545   2.004       .  S
Fe529       O535   2.204       .  S
Fe529       O542   2.106       .  S
Fe529       O534   1.981       .  S
Fe529       O540   1.891       .  S
Fe530       O533   1.981       .  S
Fe530       O537   2.207       .  S
Fe530       O541   2.031       .  S
Fe530       O546   2.184       .  S
Fe530       O540   1.876       .  S
Fe531       O549   2.200       .  S
Fe531       O543   1.985       .  S
Fe531       O540   1.901       .  S
O532       Fe883   2.205       .  S
O532        C539   1.292       .  A
O533        C547   1.252       .  A
O535        C538   1.297       .  A
O536       Fe883   1.989       .  S
O536        C900   1.248       .  A
O537        C550   1.313       .  A
C538        O543   1.254       .  A
C539        O886   1.212       .  A
C539        C944   1.491       .  S
O541        C544   1.247       .  A
O542        C544   1.284       .  A
C544        C560   1.475       .  S
O545        C550   1.258       .  A
O546        C548   1.297       .  A
C547        O549   1.305       .  A
C547        C566   1.472       .  S
C550        C594   1.498       .  S
Fe551       O567   2.211       .  S
Fe551       O557   1.980       .  S
Fe551       O652   2.029       .  S
Fe551       O556   2.187       .  S
Fe551       O562   1.876       .  S
Fe552       O647   1.998       .  S
Fe552       O651   2.105       .  S
Fe552       O562   1.893       .  S
Fe553       O565   2.204       .  S
Fe553       O554   1.989       .  S
Fe553       O562   1.902       .  S
O554        C561   1.248       .  A
O555        C569   1.296       .  A
O556        C561   1.298       .  A
O557        C560   1.252       .  A
O558       Fe905   2.206       .  S
O558        C570   1.292       .  A
O559       Fe640   1.998       .  S
O559        C660   1.258       .  A
C560        O565   1.306       .  A
O563       Fe640   2.105   1_554  S
O563        C566   1.283       .  A
O564       Fe639   2.029   1_554  S
O564        C566   1.247       .  A
O567        C572   1.313       .  A
C569        O571   1.255       .  A
C570        O744   1.213       .  A
C570        C869   1.491       .  S
C572        O647   1.258       .  A
Fe573       O589   2.211       .  S
Fe573       O579   1.980       .  S
Fe573       O586   2.029       .  S
Fe573       O578   2.187       .  S
Fe573       O584   1.876       .  S
Fe574       O577   2.201       .  S
Fe574       O581   1.998       .  S
Fe574       O585   2.105       .  S
Fe574       O590   1.980       .  S
Fe574       O584   1.893       .  S
Fe575       O593   1.988       .  S
Fe575       O932   2.206       .  S
Fe575       O587   2.204       .  S
Fe575       O576   1.989       .  S
Fe575       O584   1.902       .  S
O576        C583   1.248       .  A
O577        C591   1.296       .  A
O578        C583   1.298       .  A
O579        C582   1.252       .  A
O580        C592   1.292       .  A
O581        C594   1.258       .  A
C582        O587   1.306       .  A
C582        C610   1.475       .  S
C583        C921   1.471       .  S
O585        C588   1.283       .  A
O586        C588   1.247       .  A
C588        C613   1.472       .  S
O589        C594   1.313       .  A
O590        C944   1.213       .  A
C591        O593   1.255       .  A
C591        C913   1.471       .  S
Fe595       O608   2.106       .  S
Fe595       O600   1.981       .  S
Fe595       O694   1.891       .  S
Fe596       O599   1.981       .  S
Fe596       O603   2.207       .  S
Fe596       O695   2.031   1_554  S
Fe596       O612   2.184       .  S
Fe596       O606   1.876       .  S
Fe597       O615   2.200       .  S
Fe597       O602   1.989       .  S
Fe597       O950   2.205       .  S
Fe597       O606   1.901       .  S
O598        C605   1.292       .  A
O599        C613   1.252       .  A
O600       C1045   1.212       .  A
O601        C604   1.297       .  A
O602        C614   1.248       .  A
O603        C704   1.313   1_554  A
C604        O609   1.254       .  A
C604        C900   1.469       .  S
O606       Fe683   1.891   1_554  S
O607       Fe684   2.031       .  S
O607        C610   1.247       .  A
O608        C610   1.284       .  A
O612        C614   1.297       .  A
C613        O615   1.305       .  A
C614        C890   1.469       .  S
C616        O691   1.313       .  A
Fe617       O633   2.004       .  S
Fe617       O623   2.204       .  S
Fe617       O630   2.106       .  S
Fe617       O622   1.981       .  S
Fe617       O628   1.891       .  S
Fe618       O621   1.981       .  S
Fe618       O625   2.207       .  S
Fe618       O629   2.031       .  S
Fe618       O634   2.184       .  S
Fe618       O628   1.876       .  S
Fe619       O637   2.200       .  S
Fe619       O631   1.985       .  S
Fe619       O628   1.901       .  S
O620       Fe971   2.205       .  S
O620        C627   1.292       .  A
O621        C635   1.252       .  A
O623        C626   1.297       .  A
O624       Fe971   1.989       .  S
O624        C988   1.248       .  A
O625        C638   1.313       .  A
C626        O631   1.254       .  A
C627        O974   1.212       .  A
C627       C1032   1.491       .  S
O629        C632   1.247       .  A
O630        C632   1.284       .  A
C632        C648   1.475       .  S
O633        C638   1.258       .  A
O634        C636   1.297       .  A
C635        O637   1.305       .  A
C635        C654   1.472       .  S
C638        C682   1.498       .  S
Fe639       O655   2.211       .  S
Fe639       O645   1.980       .  S
Fe639       O644   2.187       .  S
Fe639       O650   1.876       .  S
Fe640       O650   1.893       .  S
Fe641       O653   2.204       .  S
Fe641       O642   1.989       .  S
Fe641       O650   1.902       .  S
O642        C649   1.248       .  A
O643        C657   1.296       .  A
O644        C649   1.298       .  A
O645        C648   1.252       .  A
O646       Fe993   2.206       .  S
O646        C658   1.292       .  A
C648        O653   1.306       .  A
O651        C654   1.283       .  A
O652        C654   1.247       .  A
O655        C660   1.313       .  A
C657        O659   1.255       .  A
C658        O832   1.213       .  A
C658        C781   1.491   1_556  S
Fe661       O677   2.211       .  S
Fe661       O667   1.980       .  S
Fe661       O674   2.029       .  S
Fe661       O666   2.187       .  S
Fe661       O672   1.876       .  S
Fe662       O665   2.201       .  S
Fe662       O669   1.998       .  S
Fe662       O673   2.105       .  S
Fe662       O678   1.980       .  S
Fe662       O672   1.893       .  S
Fe663       O681   1.988       .  S
Fe663      O1020   2.206       .  S
Fe663       O675   2.204       .  S
Fe663       O664   1.989       .  S
Fe663       O672   1.902       .  S
O664        C671   1.248       .  A
O665        C679   1.296       .  A
O666        C671   1.298       .  A
O667        C670   1.252       .  A
O668        C680   1.292       .  A
O669        C682   1.258       .  A
C670        O675   1.306       .  A
C670        C698   1.475       .  S
C671       C1009   1.471       .  S
O673        C676   1.283       .  A
O674        C676   1.247       .  A
C676        C701   1.472       .  S
O677        C682   1.313       .  A
O678       C1032   1.213       .  A
C679        O681   1.255       .  A
C679       C1001   1.471       .  S
Fe683       O696   2.106       .  S
Fe683       O688   1.981       .  S
Fe684       O687   1.981       .  S
Fe684       O691   2.207       .  S
Fe684       O700   2.184       .  S
Fe684       O694   1.876       .  S
Fe685       O703   2.200       .  S
Fe685       O690   1.989       .  S
Fe685      O1038   2.205       .  S
Fe685       O694   1.901       .  S
O686        C693   1.292       .  A
O687        C701   1.252       .  A
O688        C957   1.212   1_556  A
O689        C692   1.297       .  A
O690        C702   1.248       .  A
C692        O697   1.254       .  A
C692        C988   1.469       .  S
O695        C698   1.247       .  A
O696        C698   1.284       .  A
O700        C702   1.297       .  A
C701        O703   1.305       .  A
C702        C978   1.469       .  S
Fe705       O721   2.004       .  S
Fe705       O711   2.204       .  S
Fe705       O718   2.106       .  S
Fe705       O710   1.981       .  S
Fe705       O716   1.891       .  S
Fe706       O709   1.981       .  S
Fe706       O713   2.207       .  S
Fe706       O717   2.031       .  S
Fe706       O722   2.184       .  S
Fe706       O716   1.876       .  S
Fe707       O725   2.200       .  S
Fe707       O719   1.985       .  S
Fe707       O716   1.901       .  S
O708        C715   1.292       .  A
O709        C723   1.252       .  A
O711        C714   1.297       .  A
O713        C726   1.313       .  A
C714        O719   1.254       .  A
O717        C720   1.247       .  A
O718        C720   1.284       .  A
C720        C736   1.475       .  S
O721        C726   1.258       .  A
O722        C724   1.297       .  A
C723        O725   1.305       .  A
C723        C742   1.472       .  S
C726        C770   1.498       .  S
Fe727       O743   2.211       .  S
Fe727       O733   1.980       .  S
Fe727       O828   2.029       .  S
Fe727       O732   2.187       .  S
Fe727       O738   1.876       .  S
Fe728       O907   2.201   1_545  S
Fe728       O823   1.998   1_545  S
Fe728       O827   2.105       .  S
Fe728       O920   1.980       .  S
Fe728       O738   1.893       .  S
Fe729       O923   1.988   1_545  S
Fe729       O741   2.204       .  S
Fe729       O730   1.989       .  S
Fe729       O738   1.902       .  S
O730        C737   1.248       .  A
O731       Fe904   2.201       .  S
O731        C745   1.296       .  A
O732        C737   1.298       .  A
O733        C736   1.252       .  A
O734        C746   1.292       .  A
O735       Fe816   1.998   1_565  S
O735        C836   1.258   1_565  A
C736        O741   1.306       .  A
O739       Fe816   2.105   1_554  S
O739        C742   1.283       .  A
O740       Fe815   2.029   1_554  S
O740        C742   1.247       .  A
O743        C748   1.313       .  A
O744       Fe904   1.980       .  S
C745        O747   1.255       .  A
O747       Fe905   1.988       .  S
C748        O823   1.258   1_545  A
C748        C968   1.498   1_545  S
Fe749       O765   2.211       .  S
Fe749       O755   1.980       .  S
Fe749       O762   2.029       .  S
Fe749       O754   2.187       .  S
Fe749       O760   1.876       .  S
Fe750       O753   2.201       .  S
Fe750       O757   1.998       .  S
Fe750       O761   2.105       .  S
Fe750       O766   1.980       .  S
Fe750       O760   1.893       .  S
Fe751       O769   1.988       .  S
Fe751       O763   2.204       .  S
Fe751       O752   1.989   1_655  S
Fe751       O760   1.902       .  S
O752        C759   1.248   1_455  A
O753        C767   1.296       .  A
O754        C759   1.298       .  A
O755        C758   1.252       .  A
O756        C768   1.292       .  A
O757        C770   1.258       .  A
C758        O763   1.306       .  A
C758        C786   1.475       .  S
O761        C764   1.283       .  A
O762        C764   1.247       .  A
C764        C789   1.472       .  S
O765        C770   1.313       .  A
C767        O769   1.255       .  A
Fe771       O963   2.004       .  S
Fe771      O1041   2.204       .  S
Fe771       O784   2.106       .  S
Fe771       O776   1.981       .  S
Fe771       O870   1.891       .  S
Fe772       O775   1.981       .  S
Fe772       O779   2.207       .  S
Fe772       O871   2.031   1_554  S
Fe772       O788   2.184       .  S
Fe772       O782   1.876       .  S
Fe773       O791   2.200       .  S
Fe773       O778   1.989   1_655  S
Fe773       O961   1.985       .  S
Fe773       O782   1.901       .  S
O774        C781   1.292       .  A
O775        C789   1.252       .  A
O777      Fe1035   2.204   1_544  S
O777        C780   1.297       .  A
O778        C790   1.248   1_455  A
O779        C880   1.313   1_554  A
C780        O785   1.254       .  A
O782       Fe859   1.891   1_554  S
O783       Fe860   2.031       .  S
O783        C786   1.247       .  A
O784        C786   1.284       .  A
O785       Fe949   1.985   1_545  S
O787       Fe947   2.004   1_545  S
O787        C968   1.258   1_545  A
O788        C790   1.297       .  A
C789        O791   1.305       .  A
C792        O867   1.313       .  A
C792        O963   1.258       .  A
C792        C924   1.498       .  S
Fe793       O809   2.004       .  S
Fe793       O799   2.204       .  S
Fe793       O806   2.106       .  S
Fe793       O798   1.981       .  S
Fe793       O804   1.891       .  S
Fe794       O797   1.981       .  S
Fe794       O801   2.207       .  S
Fe794       O805   2.031       .  S
Fe794       O810   2.184       .  S
Fe794       O804   1.876       .  S
Fe795       O813   2.200       .  S
Fe795       O807   1.985       .  S
Fe795       O804   1.901       .  S
O796        C803   1.292       .  A
O797        C811   1.252       .  A
O799        C802   1.297       .  A
O801        C814   1.313       .  A
C802        O807   1.254       .  A
O805        C808   1.247       .  A
O806        C808   1.284       .  A
C808        C824   1.475       .  S
O809        C814   1.258       .  A
O810        C812   1.297       .  A
C811        O813   1.305       .  A
C811        C830   1.472       .  S
C814        C858   1.498       .  S
Fe815       O831   2.211       .  S
Fe815       O821   1.980       .  S
Fe815       O820   2.187       .  S
Fe815       O826   1.876       .  S
Fe816       O995   2.201   1_545  S
Fe816      O1008   1.980       .  S
Fe816       O826   1.893       .  S
Fe817      O1011   1.988   1_545  S
Fe817       O829   2.204       .  S
Fe817       O818   1.989       .  S
Fe817       O826   1.902       .  S
O818        C825   1.248       .  A
O819       Fe992   2.201       .  S
O819        C833   1.296       .  A
O820        C825   1.298       .  A
O821        C824   1.252       .  A
O822        C834   1.292       .  A
C824        O829   1.306       .  A
O827        C830   1.283       .  A
O828        C830   1.247       .  A
O831        C836   1.313       .  A
O832       Fe992   1.980       .  S
C833        O835   1.255       .  A
O835       Fe993   1.988       .  S
C836       C1056   1.498   1_545  S
Fe837       O853   2.211       .  S
Fe837       O843   1.980       .  S
Fe837       O850   2.029       .  S
Fe837       O842   2.187       .  S
Fe837       O848   1.876       .  S
Fe838       O841   2.201       .  S
Fe838       O845   1.998       .  S
Fe838       O849   2.105       .  S
Fe838       O854   1.980       .  S
Fe838       O848   1.893       .  S
Fe839       O857   1.988       .  S
Fe839       O851   2.204       .  S
Fe839       O840   1.989   1_655  S
Fe839       O848   1.902       .  S
O840        C847   1.248   1_455  A
O841        C855   1.296       .  A
O842        C847   1.298       .  A
O843        C846   1.252       .  A
O844        C856   1.292       .  A
O845        C858   1.258       .  A
C846        O851   1.306       .  A
C846        C874   1.475       .  S
O849        C852   1.283       .  A
O850        C852   1.247       .  A
C852        C877   1.472       .  S
O853        C858   1.313       .  A
C855        O857   1.255       .  A
Fe859      O1051   2.004       .  S
Fe859       O953   2.204   1_556  S
Fe859       O872   2.106       .  S
Fe859       O864   1.981       .  S
Fe860       O863   1.981       .  S
Fe860       O867   2.207       .  S
Fe860       O876   2.184       .  S
Fe860       O870   1.876       .  S
Fe861       O879   2.200       .  S
Fe861       O866   1.989   1_655  S
Fe861      O1049   1.985       .  S
Fe861       O870   1.901       .  S
O862        C869   1.292       .  A
O863        C877   1.252       .  A
O865       Fe947   2.204   1_545  S
O865        C868   1.297       .  A
O866        C878   1.248   1_455  A
C868        O873   1.254       .  A
O871        C874   1.247       .  A
O872        C874   1.284       .  A
O873      Fe1037   1.985   1_545  S
O875      Fe1035   2.004   1_545  S
O875       C1056   1.258   1_545  A
O876        C878   1.297       .  A
C877        O879   1.305       .  A
C880       O1051   1.258       .  A
C880       C1012   1.498       .  S
Fe881       O897   2.004       .  S
Fe881       O887   2.204       .  S
Fe881       O894   2.106       .  S
Fe881       O886   1.981       .  S
Fe881       O892   1.891       .  S
Fe882       O885   1.981       .  S
Fe882       O889   2.207       .  S
Fe882       O893   2.031       .  S
Fe882       O898   2.184       .  S
Fe882       O892   1.876       .  S
Fe883       O901   2.200       .  S
Fe883       O895   1.985       .  S
Fe883       O892   1.901       .  S
O884        C891   1.292       .  A
O885        C899   1.252       .  A
O887        C890   1.297       .  A
O889        C902   1.313       .  A
C890        O895   1.254       .  A
O893        C896   1.247       .  A
O894        C896   1.284       .  A
C896        C912   1.475       .  S
O897        C902   1.258       .  A
O898        C900   1.297       .  A
C899        O901   1.305       .  A
C899        C918   1.472       .  S
C902        C946   1.498       .  S
Fe903       O919   2.211       .  S
Fe903       O909   1.980       .  S
Fe903      O1004   2.029       .  S
Fe903       O908   2.187       .  S
Fe903       O914   1.876       .  S
Fe904       O999   1.998       .  S
Fe904      O1003   2.105       .  S
Fe904       O914   1.893       .  S
Fe905       O917   2.204       .  S
Fe905       O906   1.989       .  S
Fe905       O914   1.902       .  S
O906        C913   1.248       .  A
O907        C921   1.296       .  A
O908        C913   1.298       .  A
O909        C912   1.252       .  A
O910        C922   1.292       .  A
O911       Fe992   1.998       .  S
O911       C1012   1.258       .  A
C912        O917   1.306       .  A
O915       Fe992   2.105   1_554  S
O915        C918   1.283       .  A
O916       Fe991   2.029   1_554  S
O916        C918   1.247       .  A
O919        C924   1.313       .  A
C921        O923   1.255       .  A
C924        O999   1.258       .  A
Fe925       O941   2.211       .  S
Fe925       O931   1.980       .  S
Fe925       O938   2.029       .  S
Fe925       O930   2.187       .  S
Fe925       O936   1.876       .  S
Fe926       O929   2.201       .  S
Fe926       O933   1.998       .  S
Fe926       O937   2.105       .  S
Fe926       O942   1.980       .  S
Fe926       O936   1.893       .  S
Fe927       O945   1.988       .  S
Fe927       O939   2.204       .  S
Fe927       O928   1.989   1_655  S
Fe927       O936   1.902       .  S
O928        C935   1.248   1_455  A
O929        C943   1.296       .  A
O930        C935   1.298       .  A
O931        C934   1.252       .  A
O932        C944   1.292       .  A
O933        C946   1.258       .  A
C934        O939   1.306       .  A
C934        C962   1.475       .  S
O937        C940   1.283       .  A
O938        C940   1.247       .  A
C940        C965   1.472       .  S
O941        C946   1.313       .  A
C943        O945   1.255       .  A
Fe947       O960   2.106       .  S
Fe947       O952   1.981       .  S
Fe947      O1046   1.891       .  S
Fe948       O951   1.981       .  S
Fe948       O955   2.207       .  S
Fe948      O1047   2.031   1_554  S
Fe948       O964   2.184       .  S
Fe948       O958   1.876       .  S
Fe949       O967   2.200       .  S
Fe949       O954   1.989   1_655  S
Fe949       O958   1.901       .  S
O950        C957   1.292       .  A
O951        C965   1.252       .  A
O953        C956   1.297       .  A
O954        C966   1.248   1_455  A
O955       C1056   1.313   1_554  A
C956        O961   1.254       .  A
O958      Fe1035   1.891   1_554  S
O959      Fe1036   2.031       .  S
O959        C962   1.247       .  A
O960        C962   1.284       .  A
O964        C966   1.297       .  A
C965        O967   1.305       .  A
C968       O1043   1.313       .  A
Fe969       O985   2.004       .  S
Fe969       O975   2.204       .  S
Fe969       O982   2.106       .  S
Fe969       O974   1.981       .  S
Fe969       O980   1.891       .  S
Fe970       O973   1.981       .  S
Fe970       O977   2.207       .  S
Fe970       O981   2.031       .  S
Fe970       O986   2.184       .  S
Fe970       O980   1.876       .  S
Fe971       O989   2.200       .  S
Fe971       O983   1.985       .  S
Fe971       O980   1.901       .  S
O972        C979   1.292       .  A
O973        C987   1.252       .  A
O975        C978   1.297       .  A
O977        C990   1.313       .  A
C978        O983   1.254       .  A
O981        C984   1.247       .  A
O982        C984   1.284       .  A
C984       C1000   1.475       .  S
O985        C990   1.258       .  A
O986        C988   1.297       .  A
C987        O989   1.305       .  A
C987       C1006   1.472       .  S
C990       C1034   1.498       .  S
Fe991      O1007   2.211       .  S
Fe991       O997   1.980       .  S
Fe991       O996   2.187       .  S
Fe991      O1002   1.876       .  S
Fe992      O1002   1.893       .  S
Fe993      O1005   2.204       .  S
Fe993       O994   1.989       .  S
Fe993      O1002   1.902       .  S
O994       C1001   1.248       .  A
O995       C1009   1.296       .  A
O996       C1001   1.298       .  A
O997       C1000   1.252       .  A
O998       C1010   1.292       .  A
C1000      O1005   1.306       .  A
O1003      C1006   1.283       .  A
O1004      C1006   1.247       .  A
O1007      C1012   1.313       .  A
C1009      O1011   1.255       .  A
Fe1013     O1029   2.211       .  S
Fe1013     O1019   1.980       .  S
Fe1013     O1026   2.029       .  S
Fe1013     O1018   2.187       .  S
Fe1013     O1024   1.876       .  S
Fe1014     O1017   2.201       .  S
Fe1014     O1021   1.998       .  S
Fe1014     O1025   2.105       .  S
Fe1014     O1030   1.980       .  S
Fe1014     O1024   1.893       .  S
Fe1015     O1033   1.988       .  S
Fe1015     O1027   2.204       .  S
Fe1015     O1016   1.989   1_655  S
Fe1015     O1024   1.902       .  S
O1016      C1023   1.248   1_455  A
O1017      C1031   1.296       .  A
O1018      C1023   1.298       .  A
O1019      C1022   1.252       .  A
O1020      C1032   1.292       .  A
O1021      C1034   1.258       .  A
C1022      O1027   1.306       .  A
C1022      C1050   1.475       .  S
O1025      C1028   1.283       .  A
O1026      C1028   1.247       .  A
C1028      C1053   1.472       .  S
O1029      C1034   1.313       .  A
C1031      O1033   1.255       .  A
Fe1035     O1048   2.106       .  S
Fe1035     O1040   1.981       .  S
Fe1036     O1039   1.981       .  S
Fe1036     O1043   2.207       .  S
Fe1036     O1052   2.184       .  S
Fe1036     O1046   1.876       .  S
Fe1037     O1055   2.200       .  S
Fe1037     O1042   1.989   1_655  S
Fe1037     O1046   1.901       .  S
O1038      C1045   1.292       .  A
O1039      C1053   1.252       .  A
O1041      C1044   1.297       .  A
O1042      C1054   1.248   1_455  A
C1044      O1049   1.254       .  A
O1047      C1050   1.247       .  A
O1048      C1050   1.284       .  A
O1052      C1054   1.297       .  A
C1053      O1055   1.305       .  A
