geometry optimzed in LAMMPS
_audit_creation_date              2020-12-01 
_audit_creation_method            'lammps2cif' 
_symmetry_space_group_name_H-M    'P1' 
_symmetry_Int_Tables_number       1 
_symmetry_cell_setting            triclinic 
loop_ 
_symmetry_equiv_pos_as_xyz 
  x,y,z 
_cell_length_a                    28.25988541 
_cell_length_b                    44.25140634963886 
_cell_length_c                    28.778346417921394 
_cell_angle_alpha                 90.08202575160443 
_cell_angle_beta                  90.11961359132185 
_cell_angle_gamma                 90.1293454100163 
loop_ 
_atom_site_label 
_atom_site_type_symbol 
_atom_site_fract_x 
_atom_site_fract_y 
_atom_site_fract_z 
_atom_site_charge 
O1          O  0.90244133  0.63979068  0.92627158    -0.85200
O2          O  0.92188006  0.69342929  0.96832505    -0.82300
C3          C  0.91638995  0.72063013  0.97975541     0.98200
O4          O  0.87541451  0.73098972  0.98686772    -0.82300
O5          O  0.82633044  0.73001104  0.90336501    -0.85000
C6          C  0.80136093  0.72068294  0.86998635     1.02800
O7          O  0.78102107  0.69526017  0.87240881    -0.77700
O8          O  0.85747006  0.65825760  0.87055478    -0.77900
C9          C  0.89621559  0.64738506  0.88410758     1.02700
O10         O  0.83691349  0.62628420  0.00239543    -0.85200
O11         O  0.86082181  0.67942976  0.04565236    -0.82300
C12         C  0.82307963  0.69224077  0.05910825     0.98200
O13         O  0.79500229  0.70389385  0.03034420    -0.82300
O14         O  0.74345813  0.70819518  0.95104137    -0.84900
C15         C  0.72004706  0.68373282  0.95161210     1.02700
O16         O  0.74001337  0.65873950  0.94395589    -0.77700
O17         O  0.81230233  0.61677819  0.93237792    -0.77900
C18         C  0.81950499  0.60802344  0.97347187     1.02700
Cr19       Cr  0.87683665  0.66091777  0.98340782     1.93700
Cr20       Cr  0.81167528  0.71551516  0.96675136     1.93200
Cr21       Cr  0.79987680  0.65854028  0.90833283     1.39100
O22         O  0.82974930  0.67835530  0.95311454    -1.23000
O23         O  0.89728957  0.35403192  0.10479380    -0.85200
O24         O  0.91327650  0.30012381  0.06184765    -0.82300
C25         C  0.90650165  0.27410271  0.04561287     0.98200
O26         O  0.86514070  0.26587499  0.03464696    -0.82300
O27         O  0.81844389  0.26358446  0.11953314    -0.85000
C28         C  0.79696610  0.27269896  0.15527107     1.02800
O29         O  0.77624170  0.29805296  0.15552614    -0.77700
O30         O  0.85178154  0.33622139  0.15998569    -0.77900
C31         C  0.89043626  0.34780639  0.14719243     1.02700
O32         O  0.83433590  0.37046728  0.02998654    -0.85200
O33         O  0.85435803  0.31799424  0.98401648    -0.82300
C34         C  0.81522302  0.30779396  0.96901427     0.98200
O35         O  0.78539504  0.29661753  0.99661626    -0.82300
O36         O  0.73558864  0.28781537  0.07642995    -0.84900
C37         C  0.71254733  0.31225101  0.07649903     1.02700
O38         O  0.73273112  0.33680115  0.08700238    -0.77700
O39         O  0.80567236  0.37839805  0.09955979    -0.77900
C40         C  0.81732640  0.38807748  0.05989403     1.02700
Cr41       Cr  0.87109688  0.33435504  0.04730040     1.93700
Cr42       Cr  0.80277149  0.28113679  0.05822139     1.93200
Cr43       Cr  0.79357048  0.33608164  0.12191983     1.39100
O44         O  0.82263631  0.31733520  0.07574563    -1.23000
O45         O  0.39934117  0.14000954  0.92122731    -0.85200
O46         O  0.41787126  0.19586394  0.95634259    -0.82300
C47         C  0.41237080  0.22265881  0.96960145     0.98200
O48         O  0.37133170  0.23204682  0.97837532    -0.82300
O49         O  0.32515301  0.22913724  0.89314677    -0.85000
C50         C  0.30211049  0.21859790  0.85914916     1.02800
O51         O  0.27913618  0.19407792  0.86322299    -0.77700
O52         O  0.35043319  0.15302355  0.86531092    -0.77900
C53         C  0.39015755  0.14332031  0.87843885     1.02700
O54         O  0.33731461  0.12836551  0.99904899    -0.85200
O55         O  0.35853225  0.18372642  0.03652315    -0.82300
C56         C  0.32040014  0.19615998  0.04984362     0.98200
O57         O  0.29100665  0.20649423  0.02093486    -0.82300
O58         O  0.24087990  0.21143082  0.93968015    -0.84900
C59         C  0.21485996  0.18840518  0.94406895     1.02700
O60         O  0.23275170  0.16244294  0.93906328    -0.77700
O61         O  0.30222727  0.11751012  0.93326542    -0.77900
C62         C  0.31601642  0.10974510  0.97329371     1.02700
Cr63       Cr  0.37426413  0.16319803  0.97591616     1.93700
Cr64       Cr  0.30855394  0.21681245  0.95699183     1.93200
Cr65       Cr  0.29336134  0.15814174  0.90368225     1.39100
O66         O  0.32550350  0.17906491  0.94577253    -1.23000
O67         O  0.42420212  0.83550765  0.10182707    -0.85200
O68         O  0.42368837  0.79378630  0.03170327    -0.82300
C69         C  0.41994868  0.76887971  0.05284620     0.98200
O70         O  0.38235438  0.76209778  0.07388547    -0.82300
O71         O  0.29421286  0.76874862  0.11482881    -0.85000
C72         C  0.30094338  0.77993153  0.15475250     1.02800
O73         O  0.31481168  0.80684398  0.15893690    -0.77700
O74         O  0.36587559  0.85760580  0.13928213    -0.77900
C75         C  0.40910981  0.84996351  0.13654976     1.02700
O76         O  0.37086154  0.87622968  0.04683097    -0.85200
O77         O  0.35948809  0.83142347  0.97991767    -0.82300
C78         C  0.34862188  0.80622564  0.96219782     0.98200
O79         O  0.34454841  0.78298713  0.98736680    -0.82300
O80         O  0.26077513  0.79489658  0.02996034    -0.84900
C81         C  0.23089520  0.80865898  0.05447421     1.02700
O82         O  0.24387757  0.82260716  0.09088953    -0.77700
O83         O  0.29696776  0.87256477  0.06754374    -0.77900
C84         C  0.33033889  0.88778239  0.05040609     1.02700
Cr85       Cr  0.39054462  0.83305801  0.04200925     1.93700
Cr86       Cr  0.32192031  0.78015205  0.05307451     1.93200
Cr87       Cr  0.30788262  0.83828546  0.11071632     1.39100
O88         O  0.34006721  0.81715718  0.06901101    -1.23000
O89         O  0.14987701  0.36207012  0.42273887    -0.85200
O90         O  0.12787955  0.30734204  0.46182823    -0.82300
C91         C  0.13344760  0.27996788  0.47261248     0.98200
O92         O  0.17463391  0.26949128  0.47724797    -0.82300
O93         O  0.22539062  0.27225955  0.39445501    -0.85000
C94         C  0.25129568  0.28248103  0.36245936     1.02800
O95         O  0.27172443  0.30771511  0.36718863    -0.77700
O96         O  0.19541978  0.34560933  0.36643175    -0.77900
C97         C  0.15640091  0.35631136  0.38000743     1.02700
O98         O  0.21441360  0.37336488  0.50038515    -0.85200
O99         O  0.18906480  0.32000474  0.53970366    -0.82300
C100        C  0.22543687  0.30580634  0.55309171     0.98200
O101        O  0.25377007  0.29439736  0.52429520    -0.82300
O102        O  0.30676293  0.29204736  0.44609454    -0.84900
C103        C  0.33052637  0.31610209  0.45111688     1.02700
O104        O  0.31198661  0.34148069  0.44259296    -0.77700
O105        O  0.24068640  0.38454308  0.43156636    -0.77900
C106        C  0.23342128  0.39196357  0.47320122     1.02700
Cr107      Cr  0.17404017  0.33949609  0.47862331     1.93700
Cr108      Cr  0.23850035  0.28488814  0.45937387     1.93200
Cr109      Cr  0.25264349  0.34339286  0.40533216     1.39100
O110        O  0.22131005  0.32252116  0.44795878    -1.23000
O111        O  0.12940651  0.66387870  0.59781189    -0.85200
O112        O  0.13306525  0.70666266  0.53017438    -0.82300
C113        C  0.13662609  0.73143997  0.55191017     0.98200
O114        O  0.17389560  0.73815239  0.57370476    -0.82300
O115        O  0.25948423  0.73014817  0.61909128    -0.85000
C116        C  0.24948488  0.71934264  0.65854326     1.02800
O117        O  0.23265324  0.69304721  0.66138049    -0.77700
O118        O  0.18500968  0.64113638  0.63741475    -0.77900
C119        C  0.14214626  0.64906525  0.63303953     1.02700
O120        O  0.18671976  0.62414206  0.54415421    -0.85200
O121        O  0.19885926  0.66968250  0.47901842    -0.82300
C122        C  0.20947688  0.69515532  0.46232950     0.98200
O123        O  0.21511894  0.71776149  0.48871329    -0.82300
O124        O  0.29682004  0.70424044  0.53613100    -0.84900
C125        C  0.32482992  0.69172513  0.56419655     1.02700
O126        O  0.30930903  0.67783722  0.59956616    -0.77700
O127        O  0.25888470  0.62777605  0.57092305    -0.77900
C128        C  0.22711527  0.61275873  0.55048814     1.02700
Cr129      Cr  0.16595690  0.66717728  0.53998619     1.93700
Cr130      Cr  0.23476481  0.71960746  0.55566921     1.93200
Cr131      Cr  0.24418524  0.66157414  0.61376828     1.39100
O132        O  0.21504464  0.68272127  0.56992156    -1.23000
O133        O  0.64600064  0.14234456  0.59882422    -0.85200
O134        O  0.62656329  0.19825492  0.56341904    -0.82300
C135        C  0.63214965  0.22540447  0.55179521     0.98200
O136        O  0.67305563  0.23500571  0.54218576    -0.82300
O137        O  0.71887637  0.23388634  0.62723996    -0.85000
C138        C  0.74099546  0.22370111  0.66195903     1.02800
O139        O  0.76332721  0.19897312  0.65897970    -0.77700
O140        O  0.68985208  0.15846476  0.65652479    -0.77900
C141        C  0.65179273  0.14678153  0.64195735     1.02700
O142        O  0.71106674  0.13222993  0.52311162    -0.85200
O143        O  0.68732612  0.18663671  0.48421479    -0.82300
C144        C  0.72634309  0.19812261  0.47139772     0.98200
O145        O  0.75493580  0.20903879  0.50061005    -0.82300
O146        O  0.80364967  0.21484339  0.58214257    -0.84900
C147        C  0.82856028  0.19126100  0.57952017     1.02700
O148        O  0.80989238  0.16558550  0.58555712    -0.77700
O149        O  0.73926059  0.12149569  0.59170904    -0.77900
C150        C  0.72913566  0.11347525  0.55069512     1.02700
Cr151      Cr  0.67136706  0.16614785  0.54474365     1.93700
Cr152      Cr  0.73611754  0.22037766  0.56400220     1.93200
Cr153      Cr  0.74857996  0.16251049  0.61983113     1.39100
O154        O  0.71850926  0.18287112  0.57610759    -1.23000
O155        O  0.65048181  0.86038277  0.42908925    -0.85200
O156        O  0.63284692  0.80580435  0.46862494    -0.82300
C157        C  0.63835716  0.77888438  0.48146549     0.98200
O158        O  0.67962050  0.76889381  0.48829887    -0.82300
O159        O  0.72744153  0.76953733  0.40360051    -0.85000
C160        C  0.75049483  0.77934327  0.36929267     1.02800
O161        O  0.77023290  0.80500104  0.37111332    -0.77700
O162        O  0.69373487  0.84237780  0.37202121    -0.77900
C163        C  0.65559400  0.85367390  0.38652312     1.02700
O164        O  0.71680858  0.87317697  0.50403056    -0.85200
O165        O  0.69430199  0.81972807  0.54609303    -0.82300
C166        C  0.73264859  0.80756228  0.55921866     0.98200
O167        O  0.76057509  0.79607984  0.53018824    -0.82300
O168        O  0.81044931  0.79182538  0.45006943    -0.84900
C169        C  0.83400483  0.81621900  0.45129419     1.02700
O170        O  0.81418565  0.84106573  0.44210456    -0.77700
O171        O  0.74137337  0.88307011  0.43393029    -0.77900
C172        C  0.73378032  0.89151934  0.47516266     1.02700
Cr173      Cr  0.67732906  0.83851529  0.48460202     1.93700
Cr174      Cr  0.74283400  0.78437652  0.46682097     1.93200
Cr175      Cr  0.75281490  0.84154538  0.40830258     1.39100
O176        O  0.72423111  0.82151326  0.45350031    -1.23000
C177        C  0.71656015  0.03648414  0.49129802    -0.22300
C178        C  0.74494628  0.01861120  0.52006596     0.09600
C179        C  0.77089171  0.03213191  0.55637143     0.10000
C180        C  0.76635289  0.06329677  0.56428564    -0.17300
C181        C  0.73649697  0.08138499  0.53661868    -0.27700
C182        C  0.71186077  0.06767631  0.49892615     0.18400
C183        C  0.74519936  0.98556807  0.51221814     0.12300
C184        C  0.80301603  0.01361084  0.58689743    -0.12000
H185        H  0.78576477  0.07346278  0.59282570     0.12600
C186        C  0.67920101  0.08515164  0.46739644    -0.22900
H187        H  0.69703658  0.02571351  0.46333031     0.08200
C188        C  0.71209033  0.96658985  0.53433388     0.04600
C189        C  0.71069856  0.93580702  0.52282286    -0.20100
C190        C  0.74084390  0.92361172  0.48880663    -0.12400
C191        C  0.77490252  0.94268116  0.46750270     0.13300
C192        C  0.77667957  0.97342539  0.47972301    -0.22800
C193        C  0.67726182  0.97902180  0.56901997    -0.05900
H194        H  0.68450543  0.92143681  0.53922543     0.14800
C195        C  0.80978027  0.93095058  0.43229492    -0.16100
H196        H  0.80199907  0.98830178  0.46304102     0.09100
H197        H  0.65030138  0.09552034  0.48802563     0.07000
H198        H  0.66250003  0.07042599  0.44068529     0.08200
H199        H  0.69939480  0.10293025  0.44876813     0.07200
H200        H  0.83068902  0.00271850  0.56531659     0.02100
H201        H  0.78235285  0.99583635  0.60498585     0.02600
H202        H  0.82087301  0.02772458  0.61366381     0.06100
H203        H  0.65355660  0.96111509  0.58281260     0.05100
H204        H  0.65490845  0.99649127  0.55221615    -0.00700
H205        H  0.69643306  0.98932673  0.59877675     0.00800
H206        H  0.79099252  0.92361743  0.40031893     0.04500
H207        H  0.82983831  0.91170459  0.44719067     0.06400
H208        H  0.83571047  0.94859810  0.42197232     0.07300
C209        C  0.45377212  0.71488595  0.57670080    -0.22300
C210        C  0.46849584  0.71254683  0.53040349     0.09600
C211        C  0.43817112  0.69941598  0.49710736     0.10000
C212        C  0.39244259  0.69062305  0.51032229    -0.17300
C213        C  0.37615313  0.69503721  0.55594902    -0.27700
C214        C  0.40769400  0.70681030  0.58997291     0.18400
C215        C  0.51194639  0.72877663  0.51622841     0.12300
C216        C  0.45332440  0.69612193  0.44721071    -0.12000
H217        H  0.36837256  0.68167353  0.48430696     0.12600
C218        C  0.39366810  0.71377556  0.63944070    -0.22900
H219        H  0.47725128  0.72530220  0.60195500     0.08200
C220        C  0.51010345  0.75982309  0.50574043     0.04600
C221        C  0.55164723  0.77500874  0.49339369    -0.20100
C222        C  0.59560545  0.76010773  0.49150953    -0.12400
C223        C  0.59710202  0.72860053  0.50130869     0.13300
C224        C  0.55507295  0.71338532  0.51348591    -0.22800
C225        C  0.46414079  0.77705344  0.50783041    -0.05900
H226        H  0.54962701  0.79897067  0.48609590     0.14800
C227        C  0.64228986  0.71063857  0.49893873    -0.16100
H228        H  0.55581771  0.68945285  0.52132835     0.09100
H229        H  0.39942227  0.73819299  0.64652687     0.07000
H230        H  0.41607728  0.70046701  0.66361216     0.08200
H231        H  0.35631236  0.70887425  0.64753299     0.07200
H232        H  0.48536015  0.68170026  0.44533042     0.02100
H233        H  0.46153844  0.71866415  0.43234160     0.02600
H234        H  0.42522740  0.68553067  0.42555962     0.06100
H235        H  0.46889217  0.80117807  0.49829377     0.05100
H236        H  0.44957061  0.77619536  0.54359617    -0.00700
H237        H  0.43816919  0.76693155  0.48332043     0.00800
H238        H  0.63603575  0.68622927  0.50553661     0.04500
H239        H  0.66760203  0.71878734  0.52572407     0.06400
H240        H  0.65817110  0.71278309  0.46382920     0.07300
C241        C  0.01357271  0.76327491  0.54911774    -0.22300
C242        C  0.01920876  0.78590591  0.51555637     0.09600
C243        C  0.06492829  0.79393291  0.50045055     0.10000
C244        C  0.10400493  0.77759916  0.51702486    -0.17300
C245        C  0.09785030  0.75325469  0.54763471    -0.27700
C246        C  0.05239404  0.74676866  0.56531723     0.18400
C247        C  0.97619091  0.79754067  0.49256083     0.12300
C248        C  0.07202825  0.81852093  0.46506236    -0.12000
H249        H  0.13896372  0.78232209  0.50334467     0.12600
C250        C  0.04356825  0.72206586  0.60018826    -0.22900
H251        H  0.97829757  0.75737610  0.56088083     0.08200
C252        C  0.95367031  0.78031729  0.45775085     0.04600
C253        C  0.90862690  0.78875495  0.44255193    -0.20100
C254        C  0.88526376  0.81397751  0.46132964    -0.12400
C255        C  0.90984211  0.83288489  0.49327345     0.13300
C256        C  0.95514324  0.82421293  0.50856368    -0.22800
C257        C  0.97656537  0.75244247  0.43769344    -0.05900
H258        H  0.89052434  0.77467731  0.41722734     0.14800
C259        C  0.88952121  0.86137775  0.51389978    -0.16100
H260        H  0.97320557  0.83756175  0.53480439     0.09100
H261        H  0.02079464  0.70432942  0.58437213     0.07000
H262        H  0.02524690  0.73158344  0.63098836     0.08200
H263        H  0.07675869  0.71156336  0.61267656     0.07200
H264        H  0.05800245  0.84016873  0.47880965     0.02100
H265        H  0.05304419  0.81265700  0.43245075     0.02600
H266        H  0.11004886  0.82176979  0.45669058     0.06100
H267        H  0.95427220  0.74185756  0.41028686     0.05100
H268        H  0.98234796  0.73542406  0.46540463    -0.00700
H269        H  0.01113643  0.75853079  0.42196870     0.00800
H270        H  0.89062490  0.86002918  0.55238086     0.04500
H271        H  0.85253174  0.86585099  0.50378580     0.06400
H272        H  0.91137061  0.88098424  0.50295161     0.07300
C273        C  0.50735959  0.25833053  0.55317370    -0.22300
C274        C  0.51234985  0.28148618  0.52040327     0.09600
C275        C  0.55742742  0.28869590  0.50301341     0.10000
C276        C  0.59617502  0.27084353  0.51583450    -0.17300
C277        C  0.59082572  0.24574910  0.54548401    -0.27700
C278        C  0.54601875  0.24030200  0.56611243     0.18400
C279        C  0.46911039  0.29392141  0.49889533     0.12300
C280        C  0.56419841  0.31458927  0.46972546    -0.12000
H281        H  0.63041919  0.27574074  0.50068173     0.12600
C282        C  0.53817231  0.21554430  0.60124790    -0.22900
H283        H  0.47241085  0.25324714  0.56661363     0.08200
C284        C  0.44919647  0.27953684  0.45974910     0.04600
C285        C  0.40558772  0.28941440  0.44279508    -0.20100
C286        C  0.38062638  0.31287011  0.46460002    -0.12400
C287        C  0.40147296  0.32815436  0.50290465     0.13300
C288        C  0.44592014  0.31855464  0.51930163    -0.22800
C289        C  0.47295918  0.25282867  0.43704090    -0.05900
H290        H  0.38962302  0.27766998  0.41360121     0.14800
C291        C  0.37725121  0.35319719  0.52922799    -0.16100
H292        H  0.46155176  0.32942011  0.54942449     0.09100
H293        H  0.50192159  0.21630219  0.61606973     0.07000
H294        H  0.56369769  0.21799948  0.63040953     0.08200
H295        H  0.54242484  0.19314059  0.58455626     0.07200
H296        H  0.55251958  0.33592899  0.48643796     0.02100
H297        H  0.54303574  0.31078515  0.43771789     0.02600
H298        H  0.60185013  0.31724063  0.45948294     0.06100
H299        H  0.45217478  0.24406982  0.40710223     0.05100
H300        H  0.47689924  0.23420612  0.46256190    -0.00700
H301        H  0.50843806  0.25947225  0.42410536     0.00800
H302        H  0.37401033  0.34679001  0.56637079     0.04500
H303        H  0.34131894  0.35837881  0.51635461     0.06400
H304        H  0.39886906  0.37411734  0.52686966     0.07300
C305        C  0.94827059  0.22808305  0.57175201    -0.22300
C306        C  0.96500002  0.21572429  0.53013611     0.09600
C307        C  0.94074467  0.19115516  0.50962097     0.10000
C308        C  0.89817304  0.18092694  0.52961329    -0.17300
C309        C  0.87932747  0.19514462  0.56907593    -0.27700
C310        C  0.90602116  0.21794161  0.59173199     0.18400
C311        C  0.00796650  0.22936144  0.50929229     0.12300
C312        C  0.95908602  0.17641175  0.46610202    -0.12000
H313        H  0.87815988  0.16310684  0.51278692     0.12600
C314        C  0.89076261  0.23216927  0.63694017    -0.22900
H315        H  0.96788752  0.24625430  0.58829088     0.08200
C316        C  0.00510598  0.25432124  0.47897142     0.04600
C317        C  0.04675737  0.26950871  0.46588503    -0.20100
C318        C  0.09139634  0.26049274  0.48265397    -0.12400
C319        C  0.09400343  0.23458606  0.51192265     0.13300
C320        C  0.05221639  0.21950418  0.52470612    -0.22800
C321        C  0.95793130  0.26549098  0.46163476    -0.05900
H322        H  0.04422585  0.28905815  0.44338359     0.14800
C323        C  0.14005989  0.22313675  0.53177060    -0.16100
H324        H  0.05381132  0.20045978  0.54831416     0.09100
H325        H  0.88352809  0.25656151  0.63152217     0.07000
H326        H  0.91954877  0.22980000  0.66300205     0.08200
H327        H  0.85880299  0.22137528  0.65186451     0.07200
H328        H  0.99495292  0.16714332  0.47264679     0.02100
H329        H  0.96107536  0.19324156  0.43762428     0.02600
H330        H  0.93578393  0.15760167  0.45449164     0.06100
H331        H  0.96189914  0.28529693  0.43828183     0.05100
H332        H  0.93552565  0.27232772  0.49147780    -0.00700
H333        H  0.93966669  0.24729790  0.44193654     0.00800
H334        H  0.13468033  0.20341231  0.55501454     0.04500
H335        H  0.15754136  0.24109866  0.55259144     0.06400
H336        H  0.16373104  0.21575052  0.50322958     0.07300
C337        C  0.28018063  0.47282093  0.48069143    -0.22300
C338        C  0.24758035  0.48542825  0.51166113     0.09600
C339        C  0.21355272  0.46677426  0.53307369     0.10000
C340        C  0.21172508  0.43598903  0.52168024    -0.17300
C341        C  0.24289894  0.42335891  0.48900706    -0.27700
C342        C  0.27899355  0.44188105  0.46971097     0.18400
C343        C  0.24724792  0.51852869  0.51900000     0.12300
C344        C  0.17816328  0.47959347  0.56684723    -0.12000
H345        H  0.18426579  0.42202494  0.53685513     0.12600
C346        C  0.31754207  0.43001153  0.43850083    -0.22900
H347        H  0.30669117  0.48726366  0.46490766     0.08200
C348        C  0.27302425  0.53236964  0.55521386     0.04600
C349        C  0.26728161  0.56345015  0.56349149    -0.20100
C350        C  0.23583491  0.58088282  0.53668074    -0.12400
C351        C  0.21163204  0.56699294  0.49896618     0.13300
C352        C  0.21790874  0.53602819  0.49062598    -0.22800
C353        C  0.30577741  0.51418929  0.58554289    -0.05900
H354        H  0.28611205  0.57390394  0.59217962     0.14800
C355        C  0.17940613  0.58445354  0.46696404    -0.16100
H356        H  0.19866350  0.52510103  0.46259918     0.09100
H357        H  0.35253382  0.43715383  0.45237196     0.07000
H358        H  0.31316610  0.43945917  0.40302930     0.08200
H359        H  0.31850483  0.40507063  0.43646628     0.07200
H360        H  0.15642554  0.49710936  0.54939697     0.02100
H361        H  0.19692882  0.48992488  0.59684861     0.02600
H362        H  0.15391116  0.46190467  0.58037520     0.06100
H363        H  0.32321970  0.52846264  0.61237247     0.05100
H364        H  0.33374530  0.50371121  0.56384273    -0.00700
H365        H  0.28563853  0.49611096  0.60351895     0.00800
H366        H  0.16685907  0.57036670  0.43740819     0.04500
H367        H  0.19863354  0.60416485  0.45234698     0.06400
H368        H  0.14756344  0.59218883  0.48600937     0.07300
C369        C  0.52103645  0.86781402  0.20516184    -0.22300
C370        C  0.50573866  0.86198052  0.25052685     0.09600
C371        C  0.45762742  0.85553993  0.25883422     0.10000
C372        C  0.42614545  0.85372097  0.22106305    -0.17300
C373        C  0.44211830  0.85718185  0.17514298    -0.27700
C374        C  0.48995323  0.86534396  0.16724720     0.18400
C375        C  0.54188933  0.85964951  0.28767677     0.12300
C376        C  0.44002829  0.84956219  0.30731195    -0.12000
H377        H  0.38938329  0.84811654  0.22724760     0.12600
C378        C  0.50848749  0.87180011  0.11916667    -0.22900
H379        H  0.55803095  0.87307452  0.19928078     0.08200
C380        C  0.56771540  0.83270505  0.29357719     0.04600
C381        C  0.60450664  0.83182970  0.32616370    -0.20100
C382        C  0.61593123  0.85713333  0.35348087    -0.12400
C383        C  0.58935812  0.88404396  0.34831146     0.13300
C384        C  0.55249244  0.88489767  0.31536829    -0.22800
C385        C  0.55642132  0.80483575  0.26542211    -0.05900
H386        H  0.62444921  0.81111204  0.33055665     0.14800
C387        C  0.60000716  0.91256590  0.37508109    -0.16100
H388        H  0.53264188  0.90558472  0.31045541     0.09100
H389        H  0.50812095  0.85093461  0.09778448     0.07000
H390        H  0.54556590  0.88017273  0.12012691     0.08200
H391        H  0.48640159  0.88940715  0.10233013     0.07200
H392        H  0.44684945  0.86962296  0.32956123     0.02100
H393        H  0.45865695  0.82972948  0.32218350     0.02600
H394        H  0.40143555  0.84480553  0.30778477     0.06100
H395        H  0.57969468  0.78559132  0.27485069     0.05100
H396        H  0.56131099  0.80957148  0.22787660    -0.00700
H397        H  0.51919303  0.79788641  0.27163556     0.00800
H398        H  0.60713361  0.93126133  0.35034780     0.04500
H399        H  0.63132725  0.91064031  0.39802432     0.06400
H400        H  0.56896254  0.91866297  0.39671088     0.07300
C401        C  0.35137856  0.77380904  0.84113509    -0.22300
C402        C  0.30847724  0.78469798  0.82345133     0.09600
C403        C  0.28239798  0.80611289  0.84916460     0.10000
C404        C  0.29902147  0.81525915  0.89307134    -0.17300
C405        C  0.34041334  0.80283138  0.91199748    -0.27700
C406        C  0.36760597  0.78246483  0.88520928     0.18400
C407        C  0.28961397  0.77070632  0.78043001     0.12300
C408        C  0.23631776  0.81839144  0.83098017    -0.12000
H409        H  0.27793705  0.83050896  0.91403354     0.12600
C410        C  0.41325168  0.76888856  0.90252201    -0.22900
H411        H  0.37134910  0.75739778  0.82119274     0.08200
C412        C  0.30650259  0.77875882  0.73617486     0.04600
C413        C  0.29152746  0.76219811  0.69714112    -0.20100
C414        C  0.26054893  0.73729523  0.70126866    -0.12400
C415        C  0.24270110  0.72990762  0.74600510     0.13300
C416        C  0.25735342  0.74685010  0.78476962    -0.22800
C417        C  0.34070343  0.80461584  0.73031560    -0.05900
H418        H  0.30543294  0.76826407  0.66335076     0.14800
C419        C  0.20899997  0.70401352  0.75390743    -0.16100
H420        H  0.24484010  0.74081127  0.81913500     0.09100
H421        H  0.44213996  0.77422825  0.87773798     0.07000
H422        H  0.40944294  0.74396014  0.90493839     0.08200
H423        H  0.42405614  0.77766084  0.93703862     0.07200
H424        H  0.21055891  0.79967738  0.82606501     0.02100
H425        H  0.24234943  0.82980230  0.79717027     0.02600
H426        H  0.22053259  0.83503070  0.85534445     0.06100
H427        H  0.35010019  0.80819043  0.69326835     0.05100
H428        H  0.37379636  0.79994807  0.74984041    -0.00700
H429        H  0.32457188  0.82574144  0.74375339     0.00800
H430        H  0.19693309  0.70284103  0.79057565     0.04500
H431        H  0.22720660  0.68245948  0.74609828     0.06400
H432        H  0.17714367  0.70658409  0.73162055     0.07300
C433        C  0.29592391  0.75119071  0.27968692    -0.22300
C434        C  0.25720073  0.73145236  0.27738408     0.09600
C435        C  0.23489027  0.72615041  0.23428152     0.10000
C436        C  0.25114398  0.74143827  0.19454146    -0.17300
C437        C  0.28937729  0.76189030  0.19686030    -0.27700
C438        C  0.31314306  0.76586708  0.23997436     0.18400
C439        C  0.24003612  0.71769376  0.32125510     0.12300
C440        C  0.19387581  0.70451212  0.23036943    -0.12000
H441        H  0.23292379  0.73805539  0.16176470     0.12600
C442        C  0.35757154  0.78444591  0.24570708    -0.22900
H443        H  0.31327637  0.75491325  0.31286473     0.08200
C444        C  0.26478464  0.69401541  0.34338780     0.04600
C445        C  0.25157038  0.68513968  0.38847429    -0.20100
C446        C  0.21443617  0.69964914  0.41178122    -0.12400
C447        C  0.18750472  0.72180292  0.38814179     0.13300
C448        C  0.20088870  0.73067538  0.34330302    -0.22800
C449        C  0.30576889  0.67869554  0.31981144    -0.05900
H450        H  0.27202320  0.66811026  0.40658503     0.14800
C451        C  0.14468681  0.73670583  0.40929164    -0.16100
H452        H  0.18155538  0.74857636  0.32598986     0.09100
H453        H  0.38482636  0.77086853  0.26402834     0.07000
H454        H  0.34968158  0.80477952  0.26691221     0.08200
H455        H  0.37370099  0.79133328  0.21237871     0.07200
H456        H  0.16413136  0.71242301  0.25233910     0.02100
H457        H  0.20502901  0.68171917  0.24212728     0.02600
H458        H  0.18088962  0.70259743  0.19402717     0.06100
H459        H  0.32078818  0.66035793  0.34159517     0.05100
H460        H  0.33431860  0.69533083  0.31284695    -0.00700
H461        H  0.29372272  0.66865322  0.28642762     0.00800
H462        H  0.15127672  0.76130954  0.41336531     0.04500
H463        H  0.13518921  0.72722121  0.44359258     0.06400
H464        H  0.11367561  0.73337671  0.38605832     0.07300
C465        C  0.27321399  0.02816968  0.98733071    -0.22300
C466        C  0.31110374  0.01569596  0.01220615     0.09600
C467        C  0.34836873  0.03459877  0.02728742     0.10000
C468        C  0.34783551  0.06536901  0.01558013    -0.17300
C469        C  0.31108909  0.07780176  0.98873664    -0.27700
C470        C  0.27263545  0.05901169  0.97544703     0.18400
C471        C  0.31256415  0.98255997  0.02018144     0.12300
C472        C  0.38885957  0.02225442  0.05560332    -0.12000
H473        H  0.37725071  0.07957069  0.02612827     0.12600
C474        C  0.23038236  0.07134332  0.94985831    -0.22900
H475        H  0.24445634  0.01354792  0.97639818     0.08200
C476        C  0.28547831  0.96848618  0.05513362     0.04600
C477        C  0.29061870  0.93729987  0.06291863    -0.20100
C478        C  0.32311105  0.91995746  0.03729705    -0.12400
C479        C  0.34958478  0.93416799  0.00153745     0.13300
C480        C  0.34343124  0.96516548  0.99318797    -0.22800
C481        C  0.25237993  0.98656178  0.08517346    -0.05900
H482        H  0.27044453  0.92666144  0.09041078     0.14800
C483        C  0.38414044  0.91700906  0.97162285    -0.16100
H484        H  0.36379675  0.97618736  0.96617746     0.09100
H485        H  0.20227056  0.05398992  0.94541108     0.07000
H486        H  0.24075762  0.07915169  0.91472730     0.08200
H487        H  0.21523079  0.09039826  0.96991179     0.07200
H488        H  0.40824061  0.00490949  0.03533827     0.02100
H489        H  0.37502516  0.01189000  0.08797469     0.02600
H490        H  0.41447162  0.04023239  0.06547731     0.06100
H491        H  0.23458747  0.97220187  0.11153584     0.05100
H492        H  0.22463946  0.99716478  0.06330012    -0.00700
H493        H  0.27249313  0.00449980  0.10370807     0.00800
H494        H  0.39880995  0.93135540  0.94344792     0.04500
H495        H  0.36614598  0.89739341  0.95514957     0.06400
H496        H  0.41449116  0.90913879  0.99287835     0.07300
C497        C  0.28632873  0.22148520  0.27585368    -0.22300
C498        C  0.28309879  0.23777868  0.23430362     0.09600
C499        C  0.26793886  0.26808163  0.23494440     0.10000
C500        C  0.25627915  0.28151778  0.27740708    -0.17300
C501        C  0.25965242  0.26543135  0.31929221    -0.27700
C502        C  0.27548061  0.23505032  0.31864827     0.18400
C503        C  0.29494685  0.22281343  0.19003695     0.12300
C504        C  0.26454354  0.28630359  0.19084049    -0.12000
H505        H  0.24490289  0.30490483  0.27802874     0.12600
C506        C  0.28389705  0.21667967  0.36196649    -0.22900
H507        H  0.29841450  0.19825322  0.27494537     0.08200
C508        C  0.34128551  0.22336962  0.17197407     0.04600
C509        C  0.34928656  0.21236162  0.12695142    -0.20100
C510        C  0.31180341  0.20120512  0.09970406    -0.12400
C511        C  0.26596040  0.19888741  0.11920895     0.13300
C512        C  0.25811483  0.21001195  0.16406321    -0.22800
C513        C  0.38173253  0.23663289  0.19948361    -0.05900
H514        H  0.38437846  0.21410749  0.11202186     0.14800
C515        C  0.22458302  0.18472824  0.09404762    -0.16100
H516        H  0.22273468  0.20933019  0.17854439     0.09100
H517        H  0.32125705  0.20894836  0.36266305     0.07000
H518        H  0.26035628  0.19655997  0.36168662     0.08200
H519        H  0.27775608  0.22932621  0.39453657     0.07200
H520        H  0.23898220  0.27549864  0.16661252     0.02100
H521        H  0.29977397  0.28755439  0.17394027     0.02600
H522        H  0.25237960  0.30974229  0.19765768     0.06100
H523        H  0.41559927  0.23548730  0.18003050     0.05100
H524        H  0.38611862  0.22395701  0.23246626    -0.00700
H525        H  0.37444006  0.26071235  0.20755615     0.00800
H526        H  0.20881567  0.16678891  0.11611473     0.04500
H527        H  0.23465034  0.17384380  0.06086787     0.06400
H528        H  0.19728913  0.20215864  0.08702080     0.07300
C529        C  0.28806277  0.24019338  0.73235359    -0.22300
C530        C  0.27808207  0.27099174  0.73644004     0.09600
C531        C  0.27936236  0.28505603  0.78028724     0.10000
C532        C  0.28978865  0.26755862  0.81965118    -0.17300
C533        C  0.29802321  0.23628754  0.81590492    -0.27700
C534        C  0.29820775  0.22259368  0.77132254     0.18400
C535        C  0.26394975  0.28698967  0.69381845     0.12300
C536        C  0.26880095  0.31820895  0.78544628    -0.12000
H537        H  0.28951870  0.27808977  0.85368222     0.12600
C538        C  0.30948031  0.18980175  0.76268811    -0.22900
H539        H  0.28734318  0.22968870  0.69825634     0.08200
C540        C  0.29801693  0.29684183  0.66162587     0.04600
C541        C  0.28350429  0.30455507  0.61669098    -0.20100
C542        C  0.23584984  0.30210629  0.60298205    -0.12400
C543        C  0.20130627  0.29357699  0.63625249     0.13300
C544        C  0.21600909  0.28662105  0.68152617    -0.22800
C545        C  0.34978221  0.29803463  0.67419291    -0.05900
H546        H  0.30987416  0.31129909  0.59141511     0.14800
C547        C  0.14948298  0.28902162  0.62537223    -0.16100
H548        H  0.19022888  0.27855532  0.70652165     0.09100
H549        H  0.33963035  0.18813714  0.73811435     0.07000
H550        H  0.27824645  0.17835913  0.74708213     0.08200
H551        H  0.31970338  0.17746349  0.79427428     0.07200
H552        H  0.23245362  0.32295385  0.77273331     0.02100
H553        H  0.29451100  0.33161675  0.76485276     0.02600
H554        H  0.27121573  0.32564150  0.82225835     0.06100
H555        H  0.37169405  0.30636094  0.64484852     0.05100
H556        H  0.36247212  0.27513297  0.68367691    -0.00700
H557        H  0.35509959  0.31350441  0.70415549     0.00800
H558        H  0.13899524  0.26560078  0.63471303     0.04500
H559        H  0.14003249  0.29209321  0.58849182     0.06400
H560        H  0.12813265  0.30502534  0.64635916     0.07300
C561        C  0.53247279  0.12562218  0.69690605    -0.22300
C562        C  0.54088089  0.13357158  0.74334424     0.09600
C563        C  0.58670765  0.14247169  0.75706988     0.10000
C564        C  0.62241302  0.14485174  0.72351644    -0.17300
C565        C  0.61364880  0.13907295  0.67607946    -0.27700
C566        C  0.56806957  0.12819359  0.66299353     0.18400
C567        C  0.50052462  0.13469756  0.77628532     0.12300
C568        C  0.59763765  0.15061304  0.80685114    -0.12000
H569        H  0.65713010  0.15216043  0.73456681     0.12600
C570        C  0.55589457  0.11944315  0.61373060    -0.22900
H571        H  0.49727928  0.11824088  0.68695338     0.08200
C572        C  0.46653857  0.15793567  0.77351976     0.04600
C573        C  0.43048394  0.15930927  0.80676952    -0.20100
C574        C  0.42721705  0.13806695  0.84292238    -0.12400
C575        C  0.46079234  0.11434088  0.84509924     0.13300
C576        C  0.49716003  0.11312932  0.81183595    -0.22800
C577        C  0.46914367  0.18197818  0.73648948    -0.05900
H578        H  0.40559352  0.17786704  0.80545580     0.14800
C579        C  0.45898149  0.08948532  0.88081523    -0.16100
H580        H  0.52309183  0.09514548  0.81355461     0.09100
H581        H  0.55865933  0.13935668  0.59055618     0.07000
H582        H  0.51914705  0.11067981  0.61072501     0.08200
H583        H  0.58009098  0.10133348  0.60167043     0.07200
H584        H  0.59174514  0.13071886  0.82955383     0.02100
H585        H  0.57442991  0.16940736  0.81829692     0.02600
H586        H  0.63498071  0.15793673  0.81136463     0.06100
H587        H  0.44063776  0.19903387  0.74043854     0.05100
H588        H  0.46526204  0.17158017  0.70158536    -0.00700
H589        H  0.50369823  0.19389741  0.73862844     0.00800
H590        H  0.45893393  0.06723219  0.86293151     0.04500
H591        H  0.42688545  0.09010277  0.90272012     0.06400
H592        H  0.49069673  0.09090832  0.90356675     0.07300
C593        C  0.08920916  0.18220948  0.99303708    -0.22300
C594        C  0.07287736  0.21156639  0.98425293     0.09600
C595        C  0.10079282  0.23155025  0.95788201     0.10000
C596        C  0.14554553  0.22234439  0.94303267    -0.17300
C597        C  0.16377450  0.19362094  0.95407567    -0.27700
C598        C  0.13432735  0.17284398  0.97793427     0.18400
C599        C  0.02774718  0.22213340  0.00461413     0.12300
C600        C  0.08374086  0.26293385  0.94620288    -0.12000
H601        H  0.16706712  0.23823769  0.92367142     0.12600
C602        C  0.15034215  0.14121315  0.98850927    -0.22900
H603        H  0.06702228  0.16687184  0.01271754     0.08200
C604        C  0.98452696  0.21912732  0.98057942     0.04600
C605        C  0.94468086  0.23493125  0.99651755    -0.20100
C606        C  0.94742559  0.25419018  0.03542866    -0.12400
C607        C  0.99015615  0.25546054  0.06129929     0.13300
C608        C  0.02968389  0.23926689  0.04555906    -0.22800
C609        C  0.98110267  0.20025539  0.93711309    -0.05900
H610        H  0.91197182  0.23352700  0.97690170     0.14800
C611        C  0.99465515  0.27377153  0.10537519    -0.16100
H612        H  0.06309363  0.24122683  0.06390659     0.09100
H613        H  0.12302152  0.12827934  0.00783433     0.07000
H614        H  0.18294691  0.14175687  0.01003316     0.08200
H615        H  0.15726879  0.12909591  0.95543915     0.07200
H616        H  0.07759906  0.27598307  0.97859029     0.02100
H617        H  0.05019633  0.26152321  0.92616720     0.02600
H618        H  0.10989446  0.27556016  0.92493933     0.06100
H619        H  0.94472375  0.20033695  0.92243086     0.05100
H620        H  0.99080301  0.17652737  0.94513915    -0.00700
H621        H  0.00559282  0.20921553  0.91032215     0.00800
H622        H  0.96638778  0.26716346  0.13013786     0.04500
H623        H  0.99210277  0.29826159  0.09764019     0.09600
H624        H  0.02929171  0.27004633  0.12273922     0.07300
C625        C  0.53773268  0.25461015  0.97875263    -0.22300
C626        C  0.53051107  0.27798291  0.01084164     0.09600
C627        C  0.48436950  0.28528197  0.02496986     0.10000
C628        C  0.44645244  0.26768025  0.00889980    -0.17300
C629        C  0.45361298  0.24266036  0.97931462    -0.27700
C630        C  0.49995264  0.23672771  0.96274588     0.18400
C631        C  0.57240901  0.29152779  0.03350511     0.12300
C632        C  0.47539783  0.31112418  0.05791658    -0.12000
H633        H  0.41119726  0.27280512  0.02135023     0.12600
C634        C  0.51035168  0.21163775  0.92873866    -0.22900
H635        H  0.57356545  0.24944316  0.96793795     0.08200
C636        C  0.59212314  0.27785970  0.07325691     0.04600
C637        C  0.63626599  0.28764829  0.08932836    -0.20100
C638        C  0.66156601  0.31041669  0.06620274    -0.12400
C639        C  0.64022347  0.32565878  0.02831521     0.13300
C640        C  0.59556728  0.31598492  0.01253266    -0.22800
C641        C  0.56783925  0.25178994  0.09717435    -0.05900
H642        H  0.65264341  0.27606524  0.11838772     0.14800
C643        C  0.66428305  0.35066960  0.00177162    -0.16100
H644        H  0.57992218  0.32646708  0.98214920     0.09100
H645        H  0.50364325  0.18933789  0.94504344     0.07000
H646        H  0.54792784  0.21189338  0.91746324     0.08200
H647        H  0.48795448  0.21422355  0.89724710     0.07200
H648        H  0.48851992  0.33248204  0.04232329     0.02100
H649        H  0.49406823  0.30721396  0.09131651     0.02600
H650        H  0.43710303  0.31381532  0.06545255     0.06100
H651        H  0.58846430  0.24359607  0.12752434     0.05100
H652        H  0.56349944  0.23264575  0.07255099    -0.00700
H653        H  0.53249924  0.25890980  0.10977413     0.00800
H654        H  0.66756121  0.34410377  0.96468641     0.04500
H655        H  0.70009920  0.35615033  0.01485594     0.06400
H656        H  0.64251170  0.37147841  0.00395612     0.07300
C657        C  0.00074132  0.37792460  0.20925579    -0.22300
C658        C  0.00126948  0.35962484  0.24883648     0.09600
C659        C  0.96438594  0.33871454  0.25624322     0.10000
C660        C  0.92824989  0.33601280  0.22302950    -0.17300
C661        C  0.92823130  0.35353939  0.18223070    -0.27700
C662        C  0.96483354  0.37517179  0.17570690     0.18400
C663        C  0.04249417  0.36117540  0.28050437     0.12300
C664        C  0.96387132  0.31871636  0.29860605    -0.12000
H665        H  0.90060877  0.31940366  0.22842083     0.12600
C666        C  0.96635899  0.39576853  0.13408206    -0.22900
H667        H  0.02929645  0.39397988  0.20415575     0.08200
C668        C  0.08437786  0.34536006  0.27030097     0.04600
C669        C  0.12141651  0.34541615  0.30267054    -0.20100
C670        C  0.11766832  0.36073015  0.34546532    -0.12400
C671        C  0.07607933  0.37773826  0.35464153     0.13300
C672        C  0.03907728  0.37768304  0.32188404    -0.22800
C673        C  0.08946224  0.32768918  0.22575522    -0.05900
H674        H  0.15289642  0.33241232  0.29495792     0.14800
C675        C  0.07004215  0.39609725  0.39839660    -0.16100
H676        H  0.00679357  0.39004538  0.32894255     0.09100
H677        H  0.97226975  0.38241532  0.10196495     0.07000
H678        H  0.99562186  0.41249070  0.13663116     0.08200
H679        H  0.93265887  0.40850481  0.13147654     0.07200
H680        H  0.96250792  0.33283597  0.33048789     0.02100
H681        H  0.99633920  0.30464051  0.29942433     0.02600
H682        H  0.93272412  0.30335369  0.29879486     0.06100
H683        H  0.12432112  0.31622937  0.22352365     0.05100
H684        H  0.08625233  0.34312350  0.19554888    -0.00700
H685        H  0.06138604  0.31014585  0.22360117     0.00800
H686        H  0.03678858  0.40943220  0.39780232     0.04500
H687        H  0.09997070  0.41222601  0.40219809     0.06400
H688        H  0.06829722  0.38098325  0.42907172     0.07300
C689        C  0.79420194  0.20043668  0.35811787    -0.22300
C690        C  0.76201830  0.21588851  0.32990444     0.09600
C691        C  0.71639070  0.22267121  0.34679937     0.10000
C692        C  0.70450367  0.21470304  0.39245300    -0.17300
C693        C  0.73761770  0.20071679  0.42165043    -0.27700
C694        C  0.78251523  0.19260020  0.40381772     0.18400
C695        C  0.77814849  0.22771067  0.28469621     0.12300
C696        C  0.68116002  0.23959647  0.31736956    -0.12000
H697        H  0.67020034  0.22095160  0.40624018     0.12600
C698        C  0.81885590  0.17563667  0.43179855    -0.22900
H699        H  0.82910439  0.19518880  0.34478411     0.08200
C700        C  0.80227638  0.25556548  0.28228516     0.04600
C701        C  0.81036420  0.26864534  0.23886366    -0.20100
C702        C  0.79523168  0.25447932  0.19784083    -0.12400
C703        C  0.77344660  0.22566945  0.20003272     0.13300
C704        C  0.76532813  0.21257215  0.24372732    -0.22800
C705        C  0.81767615  0.27210966  0.32559727    -0.05900
H706        H  0.82690927  0.29073241  0.23696667     0.14800
C707        C  0.75567323  0.20896212  0.15776274    -0.16100
H708        H  0.74687344  0.19110881  0.24597617     0.09100
H709        H  0.85061229  0.19010269  0.43683178     0.07000
H710        H  0.82936766  0.15487063  0.41277120     0.08200
H711        H  0.80554754  0.16839473  0.46620568     0.07200
H712        H  0.67313560  0.22644928  0.28542679     0.02100
H713        H  0.69598751  0.26193662  0.30747913     0.02600
H714        H  0.64742634  0.24348938  0.33616622     0.06100
H715        H  0.83557964  0.29381774  0.31732480     0.05100
H716        H  0.84289974  0.25795040  0.34556130    -0.00700
H717        H  0.78642752  0.27715118  0.34757691     0.00800
H718        H  0.77367158  0.18673346  0.15534452     0.04500
H719        H  0.76182704  0.22124618  0.12487216     0.06400
H720        H  0.71697524  0.20510598  0.16098549     0.07300
C721        C  0.82518040  0.29534354  0.83877013    -0.22300
C722        C  0.77716180  0.29354833  0.82692184     0.09600
C723        C  0.74246039  0.30111047  0.85992865     0.10000
C724        C  0.75648012  0.30803893  0.90536575    -0.17300
C725        C  0.80436387  0.30714590  0.91868495    -0.27700
C726        C  0.83940562  0.30200188  0.88441878     0.18400
C727        C  0.76416188  0.27714029  0.78417310     0.12300
C728        C  0.69057802  0.30037575  0.84772378    -0.12000
H729        H  0.72965720  0.31250188  0.93128344     0.12600
C730        C  0.89142347  0.30118550  0.89607307    -0.22900
H731        H  0.85143584  0.28926953  0.81300337     0.08200
C732        C  0.76181795  0.29103466  0.74029138     0.04600
C733        C  0.75173823  0.27320302  0.70103400    -0.20100
C734        C  0.74462450  0.24180626  0.70498398    -0.12400
C735        C  0.74530347  0.22832491  0.74966567     0.13300
C736        C  0.75547794  0.24618480  0.78841132    -0.22800
C737        C  0.77065390  0.32439223  0.73501913    -0.05900
H738        H  0.75129196  0.28361349  0.66697186     0.14800
C739        C  0.73470082  0.19548657  0.75869897    -0.16100
H740        H  0.75684930  0.23580652  0.82253613     0.09100
H741        H  0.90297069  0.32357441  0.90939253     0.07000
H742        H  0.91333182  0.29586356  0.86513546     0.08200
H743        H  0.89834313  0.28354559  0.92262252     0.07200
H744        H  0.67997237  0.27720327  0.83710610     0.02100
H745        H  0.68358725  0.31620197  0.81862498     0.02600
H746        H  0.66815206  0.30716655  0.87761202     0.06100
H747        H  0.76739025  0.33169115  0.69824220     0.05100
H748        H  0.80690148  0.32999761  0.74728615    -0.00700
H749        H  0.74454224  0.33721836  0.75595589     0.00800
H750        H  0.76647916  0.18432146  0.77348705     0.04500
H751        H  0.72365163  0.18304315  0.72742325     0.06400
H752        H  0.70526019  0.19367349  0.78406145     0.07300
C753        C  0.98830864  0.66758475  0.79426066    -0.22300
C754        C  0.00105337  0.63899821  0.77756081     0.09600
C755        C  0.98091088  0.61288585  0.79770707     0.10000
C756        C  0.94821166  0.61604370  0.83420436    -0.17300
C757        C  0.93469993  0.64473239  0.85004744    -0.27700
C758        C  0.95501258  0.67085773  0.82982653     0.18400
C759        C  0.03547062  0.63742158  0.73878700     0.12300
C760        C  0.99259191  0.58187182  0.77956195    -0.12000
H761        H  0.93188087  0.59616408  0.84927450     0.12600
C762        C  0.94250331  0.70257046  0.84479266    -0.22900
H763        H  0.00409370  0.68758041  0.77892702     0.08200
C764        C  0.02315794  0.64681844  0.69360055     0.04600
C765        C  0.05835630  0.64871611  0.65950123    -0.20100
C766        C  0.10598957  0.64167763  0.66922597    -0.12400
C767        C  0.11734566  0.62988265  0.71380833     0.13300
C768        C  0.08198947  0.62837023  0.74808576    -0.22800
C769        C  0.97288433  0.65496368  0.68130402    -0.05900
H770        H  0.04849774  0.65642974  0.62515079     0.14800
C771        C  0.16621164  0.61891315  0.72611525    -0.16100
H772        H  0.09089021  0.62077705  0.78280844     0.09100
H773        H  0.92700461  0.71500306  0.81493675     0.07000
H774        H  0.97499064  0.71454060  0.85651132     0.08200
H775        H  0.91680718  0.70333322  0.87374016     0.07200
H776        H  0.03092763  0.57734087  0.78398388     0.02100
H777        H  0.98330517  0.58042175  0.74210621     0.02600
H778        H  0.97268790  0.56398366  0.79827764     0.06100
H779        H  0.96918619  0.66095579  0.64400114     0.05100
H780        H  0.96115679  0.67469252  0.70208091    -0.00700
H781        H  0.94924479  0.63545141  0.68847806     0.00800
H782        H  0.16795153  0.61004013  0.76216595     0.04500
H783        H  0.19205101  0.63764990  0.72354654     0.06400
H784        H  0.17652539  0.60031615  0.70228925     0.07300
C785        C  0.00388550  0.78662512  0.98648578    -0.22300
C786        C  0.04288630  0.77215729  0.00676201     0.09600
C787        C  0.03998100  0.74123188  0.01814750     0.10000
C788        C  0.99836742  0.72526481  0.00841652    -0.17300
C789        C  0.95900128  0.73947426  0.98824230    -0.27700
C790        C  0.96165311  0.77066428  0.97731678     0.18400
C791        C  0.08747590  0.78894221  0.01514228     0.12300
C792        C  0.08098712  0.72500553  0.04054754    -0.12000
H793        H  0.99635189  0.70149824  0.01729758     0.12600
C794        C  0.92087367  0.78696258  0.95481070    -0.22900
H795        H  0.00663678  0.81036849  0.97770033     0.08200
C796        C  0.12378282  0.78898387  0.98171216     0.04600
C797        C  0.16947761  0.79798577  0.99482620    -0.20100
C798        C  0.18008917  0.80639408  0.04095391    -0.12400
C799        C  0.14250366  0.80871933  0.07342605     0.13300
C800        C  0.09659245  0.80007906  0.05986275    -0.22800
C801        C  0.11480558  0.77796242  0.93289572    -0.05900
H802        H  0.19762559  0.79687330  0.96933583     0.14800
C803        C  0.15052041  0.81834816  0.12308529    -0.16100
H804        H  0.06824878  0.79995812  0.08519384     0.09100
H805        H  0.91091113  0.77544986  0.92188609     0.07000
H806        H  0.93004956  0.81077509  0.94655297     0.08200
H807        H  0.89004510  0.78730201  0.97861530     0.07200
H808        H  0.08958032  0.73569753  0.07446101     0.02100
H809        H  0.11247438  0.72615103  0.01761827     0.02600
H810        H  0.07282261  0.70081092  0.04697511     0.06100
H811        H  0.14713552  0.77936321  0.91109441     0.05100
H812        H  0.08692266  0.79198630  0.91641794    -0.00700
H813        H  0.10295202  0.75402831  0.93353596     0.00800
H814        H  0.11709846  0.81844704  0.14332645     0.04500
H815        H  0.16521329  0.84162979  0.12401486     0.06400
H816        H  0.17524609  0.80247967  0.14046479     0.07300
C817        C  0.59654936  0.71436561  0.95672096    -0.22300
C818        C  0.58079374  0.70107488  0.99801191     0.09600
C819        C  0.60725654  0.67773996  0.01876035     0.10000
C820        C  0.65115833  0.66982192  0.99955121    -0.17300
C821        C  0.66911640  0.68542240  0.96100457    -0.27700
C822        C  0.64043616  0.70679343  0.93780671     0.18400
C823        C  0.53947462  0.71475699  0.02103430     0.12300
C824        C  0.59025147  0.66243864  0.06230415    -0.12000
H825        H  0.67308625  0.65318868  0.01681815     0.12600
C826        C  0.65545345  0.72244732  0.89366746    -0.22900
H827        H  0.57547086  0.73188024  0.94043368     0.08200
C828        C  0.54486684  0.74141445  0.04752179     0.04600
C829        C  0.50456042  0.75745361  0.06109569    -0.20100
C830        C  0.45919086  0.74732241  0.04891974    -0.12400
C831        C  0.45369780  0.71960599  0.02499651     0.13300
C832        C  0.49415103  0.70355043  0.01128159    -0.22800
C833        C  0.59322537  0.75359593  0.05966461    -0.05900
H834        H  0.50848236  0.77883888  0.07918665     0.14800
C835        C  0.40551822  0.70806367  0.01109600    -0.16100
H836        H  0.49053332  0.68311113  0.99075063     0.09100
H837        H  0.65929702  0.74707562  0.90013477     0.07000
H838        H  0.62807709  0.71886003  0.86646069     0.08200
H839        H  0.68923558  0.71370442  0.87965042     0.07200
H840        H  0.55549528  0.65150466  0.05562269     0.02100
H841        H  0.58632015  0.67934269  0.09056441     0.02600
H842        H  0.61541524  0.64482000  0.07423814     0.06100
H843        H  0.59098812  0.77453270  0.08087898     0.05100
H844        H  0.61310282  0.75899234  0.02749128    -0.00700
H845        H  0.61315587  0.73648055  0.07992606     0.00800
H846        H  0.38758075  0.72483196  0.98850765     0.04500
H847        H  0.38380181  0.70413211  0.04261181     0.06400
H848        H  0.40780491  0.68642217  0.99163474     0.07300
C849        C  0.78960262  0.52329352  0.97141798    -0.22300
C850        C  0.80121657  0.51513751  0.01694933     0.09600
C851        C  0.81572772  0.53753899  0.04874985     0.10000
C852        C  0.81945560  0.56764818  0.03391392    -0.17300
C853        C  0.81001024  0.57601613  0.98754768    -0.27700
C854        C  0.79394674  0.55331815  0.95603915     0.18400
C855        C  0.80387270  0.48261120  0.02874742     0.12300
C856        C  0.82834435  0.52949435  0.09809882    -0.12000
H857        H  0.83124667  0.58457678  0.05861984     0.12600
C858        C  0.78245599  0.55989267  0.90586454    -0.22900
H859        H  0.77882675  0.50573714  0.94726588     0.08200
C860        C  0.76422698  0.46588492  0.04382065     0.04600
C861        C  0.76956408  0.43501235  0.05429039    -0.20100
C862        C  0.81353882  0.42060904  0.04933870    -0.12400
C863        C  0.85330990  0.43766757  0.03471534     0.13300
C864        C  0.84772765  0.46832937  0.02427174    -0.22800
C865        C  0.71655624  0.48062561  0.04870589    -0.05900
H866        H  0.73924066  0.42196510  0.06571975     0.14800
C867        C  0.90260936  0.42486403  0.03116698    -0.16100
H868        H  0.87811784  0.48139920  0.01299965     0.09100
H869        H  0.77010174  0.53938610  0.88707274     0.07000
H870        H  0.81452397  0.56823029  0.88766572     0.08200
H871        H  0.75373625  0.57691150  0.90375234     0.07200
H872        H  0.85847692  0.51344399  0.09841541     0.02100
H873        H  0.79743757  0.51882384  0.11532441     0.02600
H874        H  0.83876952  0.54972519  0.11862356     0.06100
H875        H  0.68930418  0.46436700  0.06093518     0.05100
H876        H  0.70500264  0.48969897  0.01458143    -0.00700
H877        H  0.71879170  0.49943622  0.07418372     0.00800
H878        H  0.91491014  0.42626454  0.99462389     0.04500
H879        H  0.90532672  0.40110504  0.04261458     0.06400
H880        H  0.92698863  0.43832686  0.05338549     0.07300
C881        C  0.77439193  0.78483732  0.78581648    -0.22300
C882        C  0.77401688  0.76882520  0.74382924     0.09600
C883        C  0.78432476  0.73770388  0.74340202     0.10000
C884        C  0.79474496  0.72316958  0.78521977    -0.17300
C885        C  0.79439568  0.73884300  0.82766051    -0.27700
C886        C  0.78361961  0.77015908  0.82810451     0.18400
C887        C  0.76225251  0.78457833  0.70023500     0.12300
C888        C  0.78340617  0.71970032  0.69887417    -0.12000
H889        H  0.80259222  0.69918570  0.78487175     0.12600
C890        C  0.77868024  0.78860564  0.87193689    -0.22900
H891        H  0.76596812  0.80873621  0.78569858     0.08200
C892        C  0.71503472  0.78761662  0.68508033     0.04600
C893        C  0.70610633  0.79761804  0.63966757    -0.20100
C894        C  0.74347558  0.80431935  0.60921604    -0.12400
C895        C  0.79066162  0.80370421  0.62614556     0.13300
C896        C  0.79937237  0.79342837  0.67127646    -0.22800
C897        C  0.67435638  0.77888013  0.71605094    -0.05900
H898        H  0.66996274  0.79830600  0.62702924     0.14800
C899        C  0.83273969  0.81370644  0.59796465    -0.16100
H900        H  0.83555063  0.79145531  0.68356966     0.09100
H901        H  0.74309986  0.79920823  0.87265943     0.07000
H902        H  0.80590143  0.80673785  0.87236298     0.08200
H903        H  0.78200722  0.77531169  0.90421402     0.07200
H904        H  0.81002973  0.72881119  0.67427231     0.02100
H905        H  0.74772425  0.72106654  0.68279120     0.02600
H906        H  0.79161034  0.69548663  0.70493848     0.06100
H907        H  0.63968270  0.78237096  0.69864311     0.05100
H908        H  0.67511956  0.79285259  0.74811557    -0.00700
H909        H  0.67717116  0.75465866  0.72565738     0.00800
H910        H  0.85374143  0.83034399  0.61833198     0.04500
H911        H  0.82260631  0.82507661  0.56525008     0.06400
H912        H  0.85548775  0.79395740  0.58990410     0.07300
C913        C  0.75673747  0.70294890  0.17235401    -0.22300
C914        C  0.79270862  0.71475458  0.20050908     0.09600
C915        C  0.83981730  0.71501263  0.18436345     0.10000
C916        C  0.84945051  0.70522964  0.13891638    -0.17300
C917        C  0.81277563  0.69590677  0.10915450    -0.27700
C918        C  0.76603669  0.69367197  0.12669261     0.18400
C919        C  0.77922342  0.73053342  0.24381335     0.12300
C920        C  0.87939918  0.72696426  0.21436267    -0.12000
H921        H  0.88525361  0.70676819  0.12562422     0.12600
C922        C  0.72567744  0.68181946  0.09748495    -0.22900
H923        H  0.72074278  0.70261775  0.18535307     0.08200
C924        C  0.76426759  0.76091439  0.24242359     0.04600
C925        C  0.75326261  0.77576261  0.28395885    -0.20100
C926        C  0.75678378  0.76098848  0.32690777    -0.12400
C927        C  0.77123933  0.73039361  0.32829948     0.13300
C928        C  0.78213399  0.71544695  0.28650386    -0.22800
C929        C  0.76097462  0.77787889  0.19713244    -0.05900
H930        H  0.74256412  0.79928185  0.28301922     0.14800
C931        C  0.77759666  0.71397631  0.37369973    -0.16100
H932        H  0.79388189  0.69214522  0.28710996     0.09100
H933        H  0.71792264  0.69758488  0.06856447     0.07000
H934        H  0.69265437  0.67941531  0.11804126     0.08200
H935        H  0.73487874  0.65922791  0.08335681     0.07200
H936        H  0.88185224  0.71338314  0.24667981     0.02100
H937        H  0.87253422  0.75092546  0.22359109     0.02600
H938        H  0.91406460  0.72581323  0.19633116     0.06100
H939        H  0.74931691  0.80159101  0.20239615     0.05100
H940        H  0.73503507  0.76662459  0.17379276    -0.00700
H941        H  0.79613629  0.77835063  0.18000194     0.00800
H942        H  0.74319997  0.71236638  0.39207211     0.04500
H943        H  0.80350046  0.72628758  0.39584152     0.06400
H944        H  0.79098226  0.69064855  0.36836918     0.07300
loop_ 
_geom_bond_atom_site_label_1 
_geom_bond_atom_site_label_2 
_geom_bond_distance 
_geom_bond_site_symmetry_2 
_ccdc_geom_bond_type 
O1          Cr19   2.026       .  S
O1            C9   1.272       .  A
O2          Cr19   1.968       .  S
O2            C3   1.257       .  A
C3            O4   1.263       .  A
C3          C789   1.483       .  S
O4          Cr20   2.009       .  S
O5          Cr20   1.979       .  S
O5            C6   1.259       .  A
C6            O7   1.264       .  A
C6          C885   1.473       .  S
O7          Cr21   2.000       .  S
O8          Cr21   1.959       .  S
O8            C9   1.258       .  A
C9          C757   1.470       .  S
O10         Cr19   1.979   1_554  S
O10          C18   1.258   1_554  A
O11         Cr19   2.021   1_554  S
O11          C12   1.270       .  A
C12          O13   1.257       .  A
C12         C917   1.479       .  S
O13         Cr20   1.960   1_554  S
O14         Cr20   2.005       .  S
O14          C15   1.268       .  A
C15          O16   1.262       .  A
C15         C821   1.467       .  S
O16         Cr21   1.980       .  S
O17         Cr21   2.006       .  S
O17          C18   1.261       .  A
C18         C853   1.498       .  S
Cr19         O22   1.769       .  S
Cr20         O22   1.767       .  S
Cr21         O22   1.770       .  S
O23         Cr41   2.008       .  S
O23          C31   1.266       .  A
O24         Cr41   1.974       .  S
O24          C25   1.256       .  A
C25          O26   1.263       .  A
C25         C606   1.485       .  S
O26         Cr42   2.008       .  S
O27         Cr42   1.979       .  S
O27          C28   1.261       .  A
C28          O29   1.267       .  A
C28         C702   1.468       .  S
O29         Cr43   2.002       .  S
O30         Cr43   1.975       .  S
O30          C31   1.261       .  A
C31         C661   1.488       .  S
O32         Cr41   1.972       .  S
O32          C40   1.257       .  A
O33         Cr41   2.014   1_556  S
O33          C34   1.268       .  A
C34          O35   1.260       .  A
C34         C725   1.480       .  S
O35         Cr42   1.963   1_556  S
O36         Cr42   1.993       .  S
O36          C37   1.263       .  A
C37          O38   1.262       .  A
C37         C638   1.472       .  S
O38         Cr43   1.990       .  S
O39         Cr43   2.010       .  S
O39          C40   1.264       .  A
C40         C862   1.476       .  S
Cr41         O44   1.765       .  S
Cr42         O44   1.769       .  S
Cr43         O44   1.770       .  S
O45         Cr63   2.009       .  S
O45          C53   1.267       .  A
O46         Cr63   1.981       .  S
O46          C47   1.255       .  A
C47          O48   1.259       .  A
C47         C629   1.488       .  S
O48         Cr64   1.992       .  S
O49         Cr64   1.975       .  S
O49          C50   1.262       .  A
C50          O51   1.269       .  A
C50         C533   1.476       .  S
O51         Cr65   2.013       .  S
O52         Cr65   1.970       .  S
O52          C53   1.260       .  A
C53         C574   1.483       .  S
O54         Cr63   1.977       .  S
O54          C62   1.259       .  A
O55         Cr63   2.016   1_554  S
O55          C56   1.271       .  A
C56          O57   1.261       .  A
C56         C510   1.473       .  S
O57         Cr64   1.961   1_554  S
O58         Cr64   1.989       .  S
O58          C59   1.262       .  A
C59          O60   1.264       .  A
C59         C597   1.491       .  S
O60         Cr65   2.004       .  S
O61         Cr65   2.006       .  S
O61          C62   1.264       .  A
C62         C469   1.489       .  S
Cr63         O66   1.774       .  S
Cr64         O66   1.768       .  S
Cr65         O66   1.771       .  S
O67         Cr85   1.968       .  S
O67          C75   1.261       .  A
O68         Cr85   1.998       .  S
O68          C69   1.264       .  A
C69          O70   1.260       .  A
C69         C830   1.469       .  S
O70         Cr86   1.979       .  S
O71         Cr86   2.008       .  S
O71          C72   1.264       .  A
C72          O73   1.258       .  A
C72         C437   1.489       .  S
O73         Cr87   1.976       .  S
O74         Cr87   2.020       .  S
O74          C75   1.271       .  A
C75         C373   1.483       .  S
O76         Cr85   1.996       .  S
O76          C84   1.259       .  A
O77         Cr85   1.990   1_556  S
O77          C78   1.262       .  A
C78          O79   1.264       .  A
C78         C405   1.470       .  S
O79         Cr86   2.001   1_556  S
O80         Cr86   1.964       .  S
O80          C81   1.259       .  A
C81          O82   1.269       .  A
C81         C798   1.490       .  S
O82         Cr87   2.017       .  S
O83         Cr87   1.986       .  S
O83          C84   1.259       .  A
C84         C478   1.488       .  S
Cr85         O88   1.771       .  S
Cr86         O88   1.774       .  S
Cr87         O88   1.774       .  S
O89        Cr107   2.013       .  S
O89          C97   1.269       .  A
O90        Cr107   1.987       .  S
O90          C91   1.261       .  A
C91          O92   1.261       .  A
C91         C318   1.495       .  S
O92        Cr108   1.996       .  S
O93        Cr108   1.983       .  S
O93          C94   1.261       .  A
C94          O95   1.263       .  A
C94         C501   1.472       .  S
O95        Cr109   1.997       .  S
O96        Cr109   1.968       .  S
O96          C97   1.263       .  A
C97         C670   1.490       .  S
O98        Cr107   1.982       .  S
O98         C106   1.257       .  A
O99        Cr107   2.004       .  S
O99         C100   1.266       .  A
C100        O101   1.259       .  A
C100        C542   1.474       .  S
O101       Cr108   1.962       .  S
O102       Cr108   1.992       .  S
O102        C103   1.265       .  A
C103        O104   1.264       .  A
C103        C286   1.475       .  S
O104       Cr109   1.991       .  S
O105       Cr109   2.000       .  S
O105        C106   1.259       .  A
C106        C341   1.485       .  S
Cr107       O110   1.771       .  S
Cr108       O110   1.767       .  S
Cr109       O110   1.774       .  S
O111       Cr129   1.966       .  S
O111        C119   1.260       .  A
O112       Cr129   2.001       .  S
O112        C113   1.265       .  A
C113        O114   1.259       .  A
C113        C245   1.467       .  S
O114       Cr130   1.978       .  S
O115       Cr130   2.007       .  S
O115        C116   1.265       .  A
C116        O117   1.259       .  A
C116        C414   1.495       .  S
O117       Cr131   1.980       .  S
O118       Cr131   2.019       .  S
O118        C119   1.268       .  A
C119        C766   1.496       .  S
O120       Cr129   1.998       .  S
O120        C128   1.262       .  A
O121       Cr129   1.991       .  S
O121        C122   1.262       .  A
C122        O123   1.265       .  A
C122        C446   1.475       .  S
O123       Cr130   2.006       .  S
O124       Cr130   1.965       .  S
O124        C125   1.259       .  A
C125        O126   1.268       .  A
C125        C213   1.477       .  S
O126       Cr131   2.017       .  S
O127       Cr131   1.982       .  S
O127        C128   1.260       .  A
C128        C350   1.486       .  S
Cr129       O132   1.769       .  S
Cr130       O132   1.773       .  S
Cr131       O132   1.774       .  S
O133       Cr151   2.013       .  S
O133        C141   1.267       .  A
O134       Cr151   1.980       .  S
O134        C135   1.257       .  A
C135        O136   1.262       .  A
C135        C277   1.487       .  S
O136       Cr152   1.998       .  S
O137       Cr152   1.977       .  S
O137        C138   1.262       .  A
C138        O139   1.267       .  A
C138        C734   1.477       .  S
O139       Cr153   2.009       .  S
O140       Cr153   1.977       .  S
O140        C141   1.263       .  A
C141        C565   1.499       .  S
O142       Cr151   1.977       .  S
O142        C150   1.258       .  A
O143       Cr151   2.016       .  S
O143        C144   1.269       .  A
C144        O145   1.260       .  A
C144        C693   1.472       .  S
O145       Cr152   1.966       .  S
O146       Cr152   1.993       .  S
O146        C147   1.262       .  A
C147        O148   1.264       .  A
C147        C309   1.476       .  S
O148       Cr153   2.000       .  S
O149       Cr153   2.003       .  S
O149        C150   1.264       .  A
C150        C181   1.491       .  S
Cr151       O154   1.768       .  S
Cr152       O154   1.767       .  S
Cr153       O154   1.766       .  S
O155       Cr173   2.017       .  S
O155        C163   1.269       .  A
O156       Cr173   1.968       .  S
O156        C157   1.258       .  A
C157        O158   1.263       .  A
C157        C222   1.494       .  S
O158       Cr174   2.011       .  S
O159       Cr174   1.981       .  S
O159        C160   1.261       .  A
C160        O161   1.265       .  A
C160        C926   1.476       .  S
O161       Cr175   2.001       .  S
O162       Cr175   1.968       .  S
O162        C163   1.261       .  A
C163        C382   1.477       .  S
O164       Cr173   1.974       .  S
O164        C172   1.257       .  A
O165       Cr173   2.014       .  S
O165        C166   1.268       .  A
C166        O167   1.258       .  A
C166        C894   1.478       .  S
O167       Cr174   1.959       .  S
O168       Cr174   1.998       .  S
O168        C169   1.267       .  A
C169        O170   1.263       .  A
C169        C254   1.480       .  S
O170       Cr175   1.987       .  S
O171       Cr175   2.006       .  S
O171        C172   1.263       .  A
C172        C190   1.486       .  S
Cr173       O176   1.770       .  S
Cr174       O176   1.769       .  S
Cr175       O176   1.770       .  S
C177        C178   1.399       .  A
C177        C182   1.404       .  A
C177        H187   1.084       .  S
C178        C183   1.479   1_545  S
C178        C179   1.407       .  A
C179        C180   1.404       .  A
C179        C184   1.507       .  S
C180        C181   1.410       .  A
C180        H185   1.083       .  S
C181        C182   1.422       .  A
C182        C186   1.508       .  S
C183        C188   1.409       .  A
C183        C192   1.400       .  A
C184        H200   1.110       .  S
C184        H201   1.109   1_545  S
C184        H202   1.111       .  S
C186        H197   1.110       .  S
C186        H198   1.111       .  S
C186        H199   1.110       .  S
C188        C189   1.402       .  A
C188        C193   1.508       .  S
C189        C190   1.407       .  A
C189        H194   1.084       .  S
C190        C191   1.419       .  A
C191        C192   1.405       .  A
C191        C195   1.507       .  S
C192        H196   1.084       .  S
C193        H203   1.111       .  S
C193        H204   1.110       .  S
C193        H205   1.109       .  S
C195        H206   1.109       .  S
C195        H207   1.110       .  S
C195        H208   1.111       .  S
C209        C210   1.400       .  A
C209        C214   1.403       .  A
C209        H219   1.085       .  S
C210        C215   1.479       .  S
C210        C211   1.408       .  A
C211        C212   1.402       .  A
C211        C216   1.506       .  S
C212        C213   1.406       .  A
C212        H217   1.084       .  S
C213        C214   1.420       .  A
C214        C218   1.510       .  S
C215        C220   1.408       .  A
C215        C224   1.400       .  A
C216        H232   1.110       .  S
C216        H233   1.110       .  S
C216        H234   1.111       .  S
C218        H229   1.111       .  S
C218        H230   1.110       .  S
C218        H231   1.103       .  S
C220        C221   1.398       .  A
C220        C225   1.509       .  S
C221        C222   1.409       .  A
C221        H226   1.083       .  S
C222        C223   1.424       .  A
C223        C224   1.409       .  A
C223        C227   1.507       .  S
C224        H228   1.083       .  S
C225        H235   1.111       .  S
C225        H236   1.110       .  S
C225        H237   1.110       .  S
C227        H238   1.111       .  S
C227        H239   1.110       .  S
C227        H240   1.111       .  S
C241        C242   1.401       .  A
C241        C246   1.399       .  A
C241        H251   1.085   1_455  S
C242        C247   1.477   1_455  S
C242        C243   1.409       .  A
C243        C244   1.404       .  A
C243        C248   1.505       .  S
C244        C245   1.403       .  A
C244        H249   1.084       .  S
C245        C246   1.412       .  A
C246        C250   1.506       .  S
C247        C252   1.408       .  A
C247        C256   1.401       .  A
C248        H264   1.110       .  S
C248        H265   1.110       .  S
C248        H266   1.111       .  S
C250        H261   1.110       .  S
C250        H262   1.110       .  S
C250        H263   1.107       .  S
C252        C253   1.397       .  A
C252        C257   1.509       .  S
C253        C254   1.406       .  A
C253        H258   1.085       .  S
C254        C255   1.421       .  A
C255        C256   1.407       .  A
C255        C259   1.508       .  S
C256        H260   1.084       .  S
C257        H267   1.111       .  S
C257        H268   1.110       .  S
C257        H269   1.110   1_655  S
C259        H270   1.109       .  S
C259        H271   1.103       .  S
C259        H272   1.110       .  S
C273        C274   1.401       .  A
C273        C278   1.404       .  A
C273        H283   1.085       .  S
C274        C279   1.476       .  S
C274        C275   1.406       .  A
C275        C276   1.401       .  A
C275        C280   1.507       .  S
C276        C277   1.409       .  A
C276        H281   1.084       .  S
C277        C278   1.420       .  A
C278        C282   1.508       .  S
C279        C284   1.409       .  A
C279        C288   1.402       .  A
C280        H296   1.110       .  S
C280        H297   1.110       .  S
C280        H298   1.111       .  S
C282        H293   1.111       .  S
C282        H294   1.111       .  S
C282        H295   1.108       .  S
C284        C285   1.396       .  A
C284        C289   1.509       .  S
C285        C286   1.404       .  A
C285        H290   1.084       .  S
C286        C287   1.419       .  A
C287        C288   1.408       .  A
C287        C291   1.508       .  S
C288        H292   1.084       .  S
C289        H299   1.111       .  S
C289        H300   1.110       .  S
C289        H301   1.109       .  S
C291        H302   1.110       .  S
C291        H303   1.105       .  S
C291        H304   1.110       .  S
C305        C306   1.399       .  A
C305        C310   1.400       .  A
C305        H315   1.085       .  S
C306        C311   1.483   1_655  S
C306        C307   1.412       .  A
C307        C308   1.409       .  A
C307        C312   1.505       .  S
C308        C309   1.404       .  A
C308        H313   1.083       .  S
C309        C310   1.416       .  A
C310        C314   1.509       .  S
C311        C316   1.411       .  A
C311        C320   1.397       .  A
C312        H328   1.110       .  S
C312        H329   1.110       .  S
C312        H330   1.111       .  S
C314        H325   1.110       .  S
C314        H326   1.111       .  S
C314        H327   1.108       .  S
C316        C317   1.406       .  A
C316        C321   1.507   1_455  S
C317        C318   1.408       .  A
C317        H322   1.084       .  S
C318        C319   1.425       .  A
C319        C320   1.405       .  A
C319        C323   1.509       .  S
C320        H324   1.084       .  S
C321        H331   1.111       .  S
C321        H332   1.110       .  S
C321        H333   1.110       .  S
C323        H334   1.111       .  S
C323        H335   1.109       .  S
C323        H336   1.110       .  S
C337        C338   1.400       .  A
C337        C342   1.405       .  A
C337        H347   1.085       .  S
C338        C343   1.480       .  S
C338        C339   1.409       .  A
C339        C340   1.402       .  A
C339        C344   1.507       .  S
C340        C341   1.406       .  A
C340        H345   1.084       .  S
C341        C342   1.421       .  A
C342        C346   1.508       .  S
C343        C348   1.409       .  A
C343        C352   1.398       .  A
C344        H360   1.110       .  S
C344        H361   1.110       .  S
C344        H362   1.111       .  S
C346        H357   1.111       .  S
C346        H358   1.110       .  S
C346        H359   1.106       .  S
C348        C349   1.405       .  A
C348        C353   1.506       .  S
C349        C350   1.408       .  A
C349        H354   1.084       .  S
C350        C351   1.420       .  A
C351        C352   1.402       .  A
C351        C355   1.509       .  S
C352        H356   1.084       .  S
C353        H363   1.111       .  S
C353        H364   1.110       .  S
C353        H365   1.110       .  S
C355        H366   1.111       .  S
C355        H367   1.110       .  S
C355        H368   1.109       .  S
C369        C370   1.400       .  A
C369        C374   1.403       .  A
C369        H379   1.084       .  S
C370        C375   1.481       .  S
C370        C371   1.410       .  A
C371        C372   1.405       .  A
C371        C376   1.506       .  S
C372        C373   1.406       .  A
C372        H377   1.083       .  S
C373        C374   1.417       .  A
C374        C378   1.508       .  S
C375        C380   1.410       .  A
C375        C384   1.403       .  A
C376        H392   1.110       .  S
C376        H393   1.110       .  S
C376        H394   1.110       .  S
C378        H389   1.109       .  S
C378        H390   1.111       .  S
C378        H391   1.111       .  S
C380        C381   1.399       .  A
C380        C385   1.508       .  S
C381        C382   1.404       .  A
C381        H386   1.085       .  S
C382        C383   1.417       .  A
C383        C384   1.408       .  A
C383        C387   1.507       .  S
C384        H388   1.084       .  S
C385        H395   1.111       .  S
C385        H396   1.110       .  S
C385        H397   1.110       .  S
C387        H398   1.110       .  S
C387        H399   1.107       .  S
C387        H400   1.110       .  S
C401        C402   1.401       .  A
C401        C406   1.400       .  A
C401        H411   1.085       .  S
C402        C407   1.481       .  S
C402        C403   1.411       .  A
C403        C404   1.406       .  A
C403        C408   1.505       .  S
C404        C405   1.403       .  A
C404        H409   1.085       .  S
C405        C406   1.414       .  A
C406        C410   1.508       .  S
C407        C412   1.407       .  A
C407        C416   1.399       .  A
C408        H424   1.110       .  S
C408        H425   1.110       .  S
C408        H426   1.111       .  S
C410        H421   1.110       .  S
C410        H422   1.110       .  S
C410        H423   1.108       .  S
C412        C413   1.404       .  A
C412        C417   1.506       .  S
C413        C414   1.411       .  A
C413        H418   1.083       .  S
C414        C415   1.422       .  A
C415        C416   1.404       .  A
C415        C419   1.506       .  S
C416        H420   1.085       .  S
C417        H427   1.111       .  S
C417        H428   1.110       .  S
C417        H429   1.110       .  S
C419        H430   1.111       .  S
C419        H431   1.108       .  S
C419        H432   1.110       .  S
C433        C434   1.400       .  A
C433        C438   1.403       .  A
C433        H443   1.085       .  S
C434        C439   1.484       .  S
C434        C435   1.409       .  A
C435        C436   1.407       .  A
C435        C440   1.506       .  S
C436        C437   1.409       .  A
C436        H441   1.084       .  S
C437        C438   1.420       .  A
C438        C442   1.508       .  S
C439        C444   1.413       .  A
C439        C448   1.400       .  A
C440        H456   1.110       .  S
C440        H457   1.110       .  S
C440        H458   1.111       .  S
C442        H453   1.111       .  S
C442        H454   1.110       .  S
C442        H455   1.106       .  S
C444        C445   1.407       .  A
C444        C449   1.506       .  S
C445        C446   1.403       .  A
C445        H450   1.084       .  S
C446        C447   1.416       .  A
C447        C448   1.402       .  A
C447        C451   1.508       .  S
C448        H452   1.085       .  S
C449        H459   1.111       .  S
C449        H460   1.110       .  S
C449        H461   1.110       .  S
C451        H462   1.110       .  S
C451        H463   1.107       .  S
C451        H464   1.111       .  S
C465        C466   1.402   1_556  A
C465        C470   1.408       .  A
C465        H475   1.084       .  S
C466        C471   1.485   1_545  S
C466        C467   1.411       .  A
C467        C468   1.403       .  A
C467        C472   1.507       .  S
C468        C469   1.407   1_554  A
C468        H473   1.084       .  S
C469        C470   1.418       .  A
C470        C474   1.505       .  S
C471        C476   1.410       .  A
C471        C480   1.400   1_554  A
C472        H488   1.110       .  S
C472        H489   1.110       .  S
C472        H490   1.111       .  S
C474        H485   1.111       .  S
C474        H486   1.109       .  S
C474        H487   1.108       .  S
C476        C477   1.406       .  A
C476        C481   1.506       .  S
C477        C478   1.407       .  A
C477        H482   1.084       .  S
C478        C479   1.420       .  A
C479        C480   1.404   1_554  A
C479        C483   1.509   1_554  S
C480        H484   1.084       .  S
C481        H491   1.111       .  S
C481        H492   1.110       .  S
C481        H493   1.110   1_565  S
C483        H494   1.111       .  S
C483        H495   1.110       .  S
C483        H496   1.109       .  S
C497        C498   1.400       .  A
C497        C502   1.404       .  A
C497        H507   1.084       .  S
C498        C503   1.474       .  S
C498        C499   1.409       .  A
C499        C500   1.399       .  A
C499        C504   1.508       .  S
C500        C501   1.404       .  A
C500        H505   1.085       .  S
C501        C502   1.418       .  A
C502        C506   1.508       .  S
C503        C508   1.410       .  A
C503        C512   1.399       .  A
C504        H520   1.110       .  S
C504        H521   1.110       .  S
C504        H522   1.111       .  S
C506        H517   1.111       .  S
C506        H518   1.110       .  S
C506        H519   1.105       .  S
C508        C509   1.403       .  A
C508        C513   1.507       .  S
C509        C510   1.405       .  A
C509        H514   1.084       .  S
C510        C511   1.417       .  A
C511        C512   1.399       .  A
C511        C515   1.509       .  S
C512        H516   1.084       .  S
C513        H523   1.111       .  S
C513        H524   1.110       .  S
C513        H525   1.110       .  S
C515        H526   1.110       .  S
C515        H527   1.107       .  S
C515        H528   1.111       .  S
C529        C530   1.397       .  A
C529        C534   1.396       .  A
C529        H539   1.085       .  S
C530        C535   1.472       .  S
C530        C531   1.407       .  A
C531        C532   1.404       .  A
C531        C536   1.505       .  S
C532        C533   1.408       .  A
C532        H537   1.084       .  S
C533        C534   1.418       .  A
C534        C538   1.507       .  S
C535        C540   1.406       .  A
C535        C544   1.400       .  A
C536        H552   1.110       .  S
C536        H553   1.110       .  S
C536        H554   1.111       .  S
C538        H549   1.111       .  S
C538        H550   1.110       .  S
C538        H551   1.099       .  S
C540        C541   1.399       .  A
C540        C545   1.507       .  S
C541        C542   1.406       .  A
C541        H546   1.084       .  S
C542        C543   1.420       .  A
C543        C544   1.402       .  A
C543        C547   1.510       .  S
C544        H548   1.085       .  S
C545        H555   1.111       .  S
C545        H556   1.110       .  S
C545        H557   1.110       .  S
C547        H558   1.111       .  S
C547        H559   1.103       .  S
C547        H560   1.110       .  S
C561        C562   1.401       .  A
C561        C566   1.408       .  A
C561        H571   1.084       .  S
C562        C567   1.485       .  S
C562        C563   1.408       .  A
C563        C564   1.402       .  A
C563        C568   1.508       .  S
C564        C565   1.410       .  A
C564        H569   1.079       .  S
C565        C566   1.424       .  A
C566        C570   1.508       .  S
C567        C572   1.411       .  A
C567        C576   1.403       .  A
C568        H584   1.110       .  S
C568        H585   1.110       .  S
C568        H586   1.111       .  S
C570        H581   1.109       .  S
C570        H582   1.111       .  S
C570        H583   1.110       .  S
C572        C573   1.401       .  A
C572        C577   1.509       .  S
C573        C574   1.406       .  A
C573        H578   1.083       .  S
C574        C575   1.418       .  A
C575        C576   1.407       .  A
C575        C579   1.507       .  S
C576        H580   1.084       .  S
C577        H587   1.111       .  S
C577        H588   1.109       .  S
C577        H589   1.110       .  S
C579        H590   1.110       .  S
C579        H591   1.106       .  S
C579        H592   1.110       .  S
C593        C594   1.403       .  A
C593        C598   1.411       .  A
C593        H603   1.084   1_556  S
C594        C599   1.481   1_556  S
C594        C595   1.408       .  A
C595        C596   1.397       .  A
C595        C600   1.509       .  S
C596        C597   1.409       .  A
C596        H601   1.084       .  S
C597        C598   1.418       .  A
C598        C602   1.503       .  S
C599        C604   1.408   1_454  A
C599        C608   1.401       .  A
C600        H616   1.110       .  S
C600        H617   1.110       .  S
C600        H618   1.111       .  S
C602        H613   1.111   1_556  S
C602        H614   1.109   1_556  S
C602        H615   1.110       .  S
C604        C605   1.404       .  A
C604        C609   1.506       .  S
C605        C606   1.408   1_556  A
C605        H610   1.084       .  S
C606        C607   1.418       .  A
C607        C608   1.404   1_655  A
C607        C611   1.509       .  S
C608        H612   1.084       .  S
C609        H619   1.111       .  S
C609        H620   1.110       .  S
C609        H621   1.110   1_655  S
C611        H622   1.111       .  S
C611        H623   1.109       .  S
C611        H624   1.111   1_655  S
C625        C626   1.401   1_556  A
C625        C630   1.404       .  A
C625        H635   1.085       .  S
C626        C631   1.476       .  S
C626        C627   1.405       .  A
C627        C628   1.401       .  A
C627        C632   1.507       .  S
C628        C629   1.411   1_554  A
C628        H633   1.084       .  S
C629        C630   1.420       .  A
C630        C634   1.509       .  S
C631        C636   1.409       .  A
C631        C640   1.401       .  A
C632        H648   1.110       .  S
C632        H649   1.110       .  S
C632        H650   1.111       .  S
C634        H645   1.109       .  S
C634        H646   1.111       .  S
C634        H647   1.111       .  S
C636        C637   1.397       .  A
C636        C641   1.509       .  S
C637        C638   1.404       .  A
C637        H642   1.085       .  S
C638        C639   1.417       .  A
C639        C640   1.406       .  A
C639        C643   1.507       .  S
C640        H644   1.084   1_554  S
C641        H651   1.111       .  S
C641        H652   1.110       .  S
C641        H653   1.109       .  S
C643        H654   1.110   1_554  S
C643        H655   1.105       .  S
C643        H656   1.110       .  S
C657        C658   1.399       .  A
C657        C662   1.404   1_455  A
C657        H667   1.084       .  S
C658        C663   1.479       .  S
C658        C659   1.409   1_455  A
C659        C660   1.402       .  A
C659        C664   1.508       .  S
C660        C661   1.408       .  A
C660        H665   1.083       .  S
C661        C662   1.421       .  A
C662        C666   1.507       .  S
C663        C668   1.408       .  A
C663        C672   1.400       .  A
C664        H680   1.110       .  S
C664        H681   1.110       .  S
C664        H682   1.111       .  S
C666        H677   1.109       .  S
C666        H678   1.111       .  S
C666        H679   1.110       .  S
C668        C669   1.400       .  A
C668        C673   1.508       .  S
C669        C670   1.409       .  A
C669        H674   1.084       .  S
C670        C671   1.422       .  A
C671        C672   1.406       .  A
C671        C675   1.508       .  S
C672        H676   1.084       .  S
C673        H683   1.111       .  S
C673        H684   1.110       .  S
C673        H685   1.110       .  S
C675        H686   1.111       .  S
C675        H687   1.111       .  S
C675        H688   1.109       .  S
C689        C690   1.398       .  A
C689        C694   1.401       .  A
C689        H699   1.085       .  S
C690        C695   1.476       .  S
C690        C691   1.412       .  A
C691        C692   1.402       .  A
C691        C696   1.507       .  S
C692        C693   1.402       .  A
C692        H697   1.084       .  S
C693        C694   1.417       .  A
C694        C698   1.506       .  S
C695        C700   1.409       .  A
C695        C704   1.402       .  A
C696        H712   1.110       .  S
C696        H713   1.111       .  S
C696        H714   1.111       .  S
C698        H709   1.110       .  S
C698        H710   1.110       .  S
C698        H711   1.107       .  S
C700        C701   1.397       .  A
C700        C705   1.508       .  S
C701        C702   1.401       .  A
C701        H706   1.084       .  S
C702        C703   1.416       .  A
C703        C704   1.404       .  A
C703        C707   1.507       .  S
C704        H708   1.085       .  S
C705        H715   1.111       .  S
C705        H716   1.110       .  S
C705        H717   1.110       .  S
C707        H718   1.111       .  S
C707        H719   1.106       .  S
C707        H720   1.111       .  S
C721        C722   1.401       .  A
C721        C726   1.404       .  A
C721        H731   1.084       .  S
C722        C727   1.473       .  S
C722        C723   1.407       .  A
C723        C724   1.399       .  A
C723        C728   1.507       .  S
C724        C725   1.406       .  A
C724        H729   1.083       .  S
C725        C726   1.418       .  A
C726        C730   1.508       .  S
C727        C732   1.407       .  A
C727        C736   1.397       .  A
C728        H744   1.110       .  S
C728        H745   1.110       .  S
C728        H746   1.111       .  S
C730        H741   1.110       .  S
C730        H742   1.111       .  S
C730        H743   1.110       .  S
C732        C733   1.405       .  A
C732        C737   1.504       .  S
C733        C734   1.408       .  A
C733        H738   1.084       .  S
C734        C735   1.418       .  A
C735        C736   1.395       .  A
C735        C739   1.506       .  S
C736        H740   1.085       .  S
C737        H747   1.111       .  S
C737        H748   1.110       .  S
C737        H749   1.110       .  S
C739        H750   1.110       .  S
C739        H751   1.099       .  S
C739        H752   1.111       .  S
C753        C754   1.401   1_655  A
C753        C758   1.399       .  A
C753        H763   1.085   1_655  S
C754        C759   1.483       .  S
C754        C755   1.413   1_455  A
C755        C756   1.407       .  A
C755        C760   1.505       .  S
C756        C757   1.402       .  A
C756        H761   1.084       .  S
C757        C758   1.416       .  A
C758        C762   1.510       .  S
C759        C764   1.409       .  A
C759        C768   1.401       .  A
C760        H776   1.109   1_655  S
C760        H777   1.111       .  S
C760        H778   1.111       .  S
C762        H773   1.111       .  S
C762        H774   1.110       .  S
C762        H775   1.107       .  S
C764        C765   1.401       .  A
C764        C769   1.508   1_455  S
C765        C766   1.410       .  A
C765        H770   1.082       .  S
C766        C767   1.422       .  A
C767        C768   1.407       .  A
C767        C771   1.507       .  S
C768        H772   1.084       .  S
C769        H779   1.111       .  S
C769        H780   1.109       .  S
C769        H781   1.110       .  S
C771        H782   1.111       .  S
C771        H783   1.106       .  S
C771        H784   1.110       .  S
C785        C786   1.402   1_556  A
C785        C790   1.410   1_455  A
C785        H795   1.084       .  S
C786        C791   1.480       .  S
C786        C787   1.410       .  A
C787        C788   1.398   1_455  A
C787        C792   1.509       .  S
C788        C789   1.404   1_554  A
C788        H793   1.084       .  S
C789        C790   1.418       .  A
C790        C794   1.507       .  S
C791        C796   1.408   1_554  A
C791        C800   1.401       .  A
C792        H808   1.110       .  S
C792        H809   1.110       .  S
C792        H810   1.111       .  S
C794        H805   1.111       .  S
C794        H806   1.111       .  S
C794        H807   1.110       .  S
C796        C797   1.401       .  A
C796        C801   1.507       .  S
C797        C798   1.410   1_556  A
C797        H802   1.084       .  S
C798        C799   1.420       .  A
C799        C800   1.406       .  A
C799        C803   1.507       .  S
C800        H804   1.084       .  S
C801        H811   1.111       .  S
C801        H812   1.110       .  S
C801        H813   1.110       .  S
C803        H814   1.111       .  S
C803        H815   1.110       .  S
C803        H816   1.111       .  S
C817        C818   1.400       .  A
C817        C822   1.397       .  A
C817        H827   1.085       .  S
C818        C823   1.475   1_556  S
C818        C819   1.409   1_556  A
C819        C820   1.404   1_554  A
C819        C824   1.504       .  S
C820        C821   1.403       .  A
C820        H825   1.084   1_556  S
C821        C822   1.414       .  A
C822        C826   1.509       .  S
C823        C828   1.411       .  A
C823        C832   1.400       .  A
C824        H840   1.110       .  S
C824        H841   1.110       .  S
C824        H842   1.111       .  S
C826        H837   1.110       .  S
C826        H838   1.111       .  S
C826        H839   1.108       .  S
C828        C829   1.399       .  A
C828        C833   1.508       .  S
C829        C830   1.401       .  A
C829        H834   1.085       .  S
C830        C831   1.414       .  A
C831        C832   1.404       .  A
C831        C835   1.506       .  S
C832        H836   1.084   1_554  S
C833        H843   1.111       .  S
C833        H844   1.110       .  S
C833        H845   1.110       .  S
C835        H846   1.110   1_554  S
C835        H847   1.110       .  S
C835        H848   1.111   1_554  S
C849        C850   1.398   1_556  A
C849        C854   1.406       .  A
C849        H859   1.084       .  S
C850        C855   1.481       .  S
C850        C851   1.408       .  A
C851        C852   1.403       .  A
C851        C856   1.507       .  S
C852        C853   1.410   1_554  A
C852        H857   1.084       .  S
C853        C854   1.425       .  A
C854        C858   1.508       .  S
C855        C860   1.411       .  A
C855        C864   1.399       .  A
C856        H872   1.110       .  S
C856        H873   1.110       .  S
C856        H874   1.111       .  S
C858        H869   1.111       .  S
C858        H870   1.110       .  S
C858        H871   1.110       .  S
C860        C861   1.408       .  A
C860        C865   1.505       .  S
C861        C862   1.405       .  A
C861        H866   1.084       .  S
C862        C863   1.417       .  A
C863        C864   1.399       .  A
C863        C867   1.509       .  S
C864        H868   1.085       .  S
C865        H875   1.111       .  S
C865        H876   1.110       .  S
C865        H877   1.110       .  S
C867        H878   1.110   1_554  S
C867        H879   1.105       .  S
C867        H880   1.111       .  S
C881        C882   1.400       .  A
C881        C886   1.405       .  A
C881        H891   1.085       .  S
C882        C887   1.474       .  S
C882        C883   1.408       .  A
C883        C884   1.397       .  A
C883        C888   1.508       .  S
C884        C885   1.404       .  A
C884        H889   1.085       .  S
C885        C886   1.420       .  A
C886        C890   1.508       .  S
C887        C892   1.410       .  A
C887        C896   1.397       .  A
C888        H904   1.110       .  S
C888        H905   1.110       .  S
C888        H906   1.111       .  S
C890        H901   1.111       .  S
C890        H902   1.110       .  S
C890        H903   1.104       .  S
C892        C893   1.403       .  A
C892        C897   1.506       .  S
C893        C894   1.405       .  A
C893        H898   1.084       .  S
C894        C895   1.419       .  A
C895        C896   1.398       .  A
C895        C899   1.507       .  S
C896        H900   1.085       .  S
C897        H907   1.111       .  S
C897        H908   1.110       .  S
C897        H909   1.110       .  S
C899        H910   1.110       .  S
C899        H911   1.106       .  S
C899        H912   1.111       .  S
C913        C914   1.398       .  A
C913        C918   1.402       .  A
C913        H923   1.085       .  S
C914        C919   1.479       .  S
C914        C915   1.411       .  A
C915        C916   1.404       .  A
C915        C920   1.506       .  S
C916        C917   1.404       .  A
C916        H921   1.084       .  S
C917        C918   1.418       .  A
C918        C922   1.508       .  S
C919        C924   1.411       .  A
C919        C928   1.401       .  A
C920        H936   1.110       .  S
C920        H937   1.110       .  S
C920        H938   1.111       .  S
C922        H933   1.109       .  S
C922        H934   1.111       .  S
C922        H935   1.110       .  S
C924        C925   1.399       .  A
C924        C929   1.508       .  S
C925        C926   1.403       .  A
C925        H930   1.085       .  S
C926        C927   1.416       .  A
C927        C928   1.407       .  A
C927        C931   1.506       .  S
C928        H932   1.084       .  S
C929        H939   1.111       .  S
C929        H940   1.110       .  S
C929        H941   1.110       .  S
C931        H942   1.110       .  S
C931        H943   1.111       .  S
C931        H944   1.111       .  S
