geometry optimzed in LAMMPS
_audit_creation_date              2020-12-01 
_audit_creation_method            'lammps2cif' 
_symmetry_space_group_name_H-M    'P1' 
_symmetry_Int_Tables_number       1 
_symmetry_cell_setting            triclinic 
loop_ 
_symmetry_equiv_pos_as_xyz 
  x,y,z 
_cell_length_a                    27.80821556 
_cell_length_b                    53.682880924037356 
_cell_length_c                    27.89885718036898 
_cell_angle_alpha                 90.00966504939207 
_cell_angle_beta                  89.949954105368 
_cell_angle_gamma                 89.98848558578767 
loop_ 
_atom_site_label 
_atom_site_type_symbol 
_atom_site_fract_x 
_atom_site_fract_y 
_atom_site_fract_z 
_atom_site_charge 
Zn1        Zn  0.26034413  0.89017018  0.44513922     1.49700
Zn2        Zn  0.24919225  0.84448692  0.51797926     1.49400
Zn3        Zn  0.17826469  0.89172169  0.52490289     1.49100
Zn4        Zn  0.17109972  0.85439218  0.43613546     1.49500
O5          O  0.21483008  0.87022133  0.48140074    -1.81100
O6          O  0.32726795  0.88095411  0.46317290    -0.71700
O7          O  0.24555671  0.85224586  0.58849600    -0.71600
O8          O  0.19423077  0.92814264  0.51348561    -0.71100
O9          O  0.32101138  0.84515194  0.50320578    -0.71800
O10         O  0.25281219  0.92662351  0.45908180    -0.71400
O11         O  0.19600226  0.88468045  0.59395754    -0.71900
O12         O  0.10351195  0.86620864  0.44558443    -0.71300
O13         O  0.21754735  0.81039893  0.50914159    -0.72100
O14         O  0.10677468  0.88573490  0.51606989    -0.71500
O15         O  0.16481252  0.81814244  0.45101607    -0.71900
O16         O  0.19212908  0.85866077  0.36714965    -0.71800
O17         O  0.25441043  0.88441941  0.37416216    -0.71600
C18         C  0.34615170  0.86244672  0.48431933     0.80200
C19         C  0.22358170  0.86860301  0.61311978     0.80600
C20         C  0.22555445  0.93878784  0.48719475     0.79600
C21         C  0.08309617  0.87601879  0.48173043     0.80000
C22         C  0.18345127  0.80353689  0.48157293     0.81100
C23         C  0.22621930  0.87127878  0.34876922     0.80200
Zn24       Zn  0.76149073  0.88945526  0.53894983     1.49700
Zn25       Zn  0.67912376  0.89211945  0.46011566     1.49400
Zn26       Zn  0.74810512  0.84397077  0.46611892     1.49100
Zn27       Zn  0.67090201  0.85456587  0.54870051     1.49500
O28         O  0.71494833  0.87001578  0.50311186    -1.81100
O29         O  0.75459314  0.92601853  0.52617325    -0.71700
O30         O  0.69700802  0.88534369  0.39099522    -0.71600
O31         O  0.82019624  0.84412207  0.47979339    -0.71100
O32         O  0.69526171  0.92848327  0.47287268    -0.71800
O33         O  0.82785286  0.87981439  0.51995555    -0.71400
O34         O  0.74389542  0.85181800  0.39576163    -0.71900
O35         O  0.66423860  0.81817729  0.53471419    -0.71300
O36         O  0.60756616  0.88635495  0.46848226    -0.72100
O37         O  0.71579897  0.81007238  0.47563170    -0.71500
O38         O  0.60343671  0.86655406  0.53864164    -0.71900
O39         O  0.69182360  0.85926435  0.61773169    -0.71800
O40         O  0.75593353  0.88372668  0.60993261    -0.71600
C41         C  0.72700973  0.93867685  0.49929112     0.80200
C42         C  0.72322339  0.86874723  0.37150682     0.80600
C43         C  0.84600194  0.86121147  0.49846030     0.79600
C44         C  0.68217480  0.80339352  0.50399624     0.80000
C45         C  0.58346632  0.87659631  0.50250878     0.81100
C46         C  0.72681772  0.87135014  0.63573812     0.80200
Zn47       Zn  0.23445333  0.10922086  0.55100590     1.49700
Zn48       Zn  0.24562184  0.15575511  0.47956906     1.49400
Zn49       Zn  0.32414946  0.14451093  0.56063857     1.49100
Zn50       Zn  0.31547549  0.10818890  0.47038139     1.49500
O51         O  0.27978628  0.12944900  0.51502664    -1.81100
O52         O  0.16767798  0.11842061  0.53277006    -0.71700
O53         O  0.27694403  0.18989673  0.49090961    -0.71600
O54         O  0.30378194  0.13944239  0.62973607    -0.71100
O55         O  0.17372411  0.15466124  0.49414641    -0.71800
O56         O  0.24001952  0.11473147  0.62227423    -0.71400
O57         O  0.32975784  0.18101785  0.54835350    -0.71900
O58         O  0.38700542  0.11419060  0.47788559    -0.71300
O59         O  0.24893729  0.14879512  0.40853300    -0.72100
O60         O  0.39169428  0.13300212  0.54903530    -0.71500
O61         O  0.29643540  0.11560020  0.40193721    -0.71900
O62         O  0.29984284  0.07168590  0.48107865    -0.71800
O63         O  0.24203826  0.07282182  0.53631750    -0.71600
C64         C  0.14870371  0.13708191  0.51222550     0.80200
C65         C  0.31085037  0.19627767  0.51919544     0.80600
C66         C  0.26894850  0.12730206  0.64794384     0.79600
C67         C  0.41135932  0.12361581  0.51203889     0.80000
C68         C  0.26953019  0.13215772  0.38338078     0.81100
C69         C  0.26891264  0.06085169  0.50753186     0.80200
Zn70       Zn  0.82348803  0.14604267  0.55193246     1.49700
Zn71       Zn  0.74542211  0.15588758  0.47035173     1.49400
Zn72       Zn  0.81572176  0.10828936  0.46349564     1.49100
Zn73       Zn  0.73418243  0.11040175  0.54357930     1.49500
O74         O  0.77966369  0.13011660  0.50693153    -1.81100
O75         O  0.83121450  0.18212045  0.53568183    -0.71700
O76         O  0.74816633  0.14772501  0.40008329    -0.71600
O77         O  0.88737819  0.11375149  0.47268989    -0.71100
O78         O  0.77814528  0.18980877  0.47784789    -0.71800
O79         O  0.89052770  0.13336031  0.54313929    -0.71400
O80         O  0.79793740  0.11537171  0.39436439    -0.71900
O81         O  0.74126438  0.07386596  0.53035225    -0.71300
O82         O  0.67373316  0.15575756  0.48614011    -0.72100
O83         O  0.79923179  0.07189423  0.47538866    -0.71500
O84         O  0.66746393  0.11984769  0.52583682    -0.71900
O85         O  0.74018982  0.11639755  0.61450846    -0.71800
O86         O  0.80202628  0.14245115  0.62112456    -0.71600
C87         C  0.81277240  0.19661908  0.50480095     0.80200
C88         C  0.77006473  0.13138273  0.37537073     0.80600
C89         C  0.91098846  0.12323960  0.50732602     0.79600
C90         C  0.76816434  0.06145873  0.50230279     0.80000
C91         C  0.64859374  0.13851946  0.50524644     0.81100
C92         C  0.76810109  0.12978415  0.63973176     0.80200
Zn93       Zn  0.32316680  0.85462709  0.93603284     1.49700
Zn94       Zn  0.24561570  0.84405712  0.01815399     1.49400
Zn95       Zn  0.31547822  0.89178068  0.02513983     1.49100
Zn96       Zn  0.23329299  0.89001218  0.94596062     1.49500
O97         O  0.27929241  0.87012436  0.98168164    -1.81100
O98         O  0.33033391  0.81834830  0.95052538    -0.71700
O99         O  0.24960751  0.85162925  0.08863827    -0.71600
O100        O  0.38695972  0.88624268  0.01592716    -0.71100
O101        O  0.27784994  0.81010056  0.00870018    -0.71800
O102        O  0.39055322  0.86685010  0.94530461    -0.71400
O103        O  0.29812332  0.88447658  0.09411595    -0.71900
O104        O  0.24035157  0.92653778  0.95994735    -0.71300
O105        O  0.17355416  0.84458739  0.00418318    -0.72100
O106        O  0.29893301  0.92818158  0.01418759    -0.71500
O107        O  0.16673902  0.88054921  0.96476086    -0.71900
O108        O  0.23876225  0.88434256  0.87481577    -0.71800
O109        O  0.30163456  0.85899292  0.86717458    -0.71600
C110        C  0.31205339  0.80351904  0.98092854     0.80200
C111        C  0.27112071  0.86812831  0.11325197     0.80600
C112        C  0.41079314  0.87675403  0.98142873     0.79600
C113        C  0.26747091  0.93877166  0.98803342     0.80000
C114        C  0.14814577  0.86194260  0.98585194     0.81100
C115        C  0.26714900  0.87143941  0.84910249     0.80200
Zn116      Zn  0.73330511  0.89029056  0.03968156     1.49700
Zn117      Zn  0.82321421  0.85491758  0.04837062     1.49400
Zn118      Zn  0.74544755  0.84498629  0.96625279     1.49100
Zn119      Zn  0.81544504  0.89276924  0.96023643     1.49500
O120        O  0.77931981  0.87075431  0.00323873    -1.81100
O121        O  0.73897126  0.88418517  0.11049471    -0.71700
O122        O  0.82946814  0.81864070  0.03357372    -0.71600
O123        O  0.67347426  0.84554512  0.98026369    -0.71100
O124        O  0.80238579  0.85917346  0.11747398    -0.71800
O125        O  0.66663003  0.88113544  0.02090462    -0.71400
O126        O  0.77698805  0.81086595  0.97524388    -0.71900
O127        O  0.79762407  0.88600142  0.89102730    -0.71300
O128        O  0.89072556  0.86679997  0.03865565    -0.72100
O129        O  0.74962889  0.85291164  0.89591057    -0.71500
O130        O  0.88708329  0.88693011  0.96882394    -0.71900
O131        O  0.79926083  0.92914979  0.97292919    -0.71800
O132        O  0.74069799  0.92683757  0.02721137    -0.71600
C133        C  0.76775392  0.87139572  0.13587522     0.80200
C134        C  0.81090145  0.80399917  0.00303342     0.80600
C135        C  0.64806142  0.86271895  0.99921446     0.79600
C136        C  0.77086257  0.86963685  0.87158494     0.80000
C137        C  0.91095442  0.87698229  0.00279536     0.81100
C138        C  0.76792285  0.93941650  0.99979713     0.80200
Zn139      Zn  0.25794172  0.10951064  0.05110428     1.49700
Zn140      Zn  0.17681900  0.10819365  0.97069903     1.49400
Zn141      Zn  0.16782402  0.14460725  0.06082313     1.49100
Zn142      Zn  0.24626968  0.15592494  0.97959560     1.49500
O143        O  0.21234895  0.12957926  0.01518609    -1.81100
O144        O  0.25095469  0.07306748  0.03630065    -0.71700
O145        O  0.10522061  0.11405192  0.97843574    -0.71600
O146        O  0.18820425  0.13965344  0.12985621    -0.71100
O147        O  0.19288574  0.07171022  0.98145839    -0.71800
O148        O  0.25194764  0.11490592  0.12235364    -0.71400
O149        O  0.10048290  0.13283011  0.04962219    -0.71900
O150        O  0.21444571  0.18990905  0.99071944    -0.71300
O151        O  0.19567353  0.11565810  0.90214929    -0.72100
O152        O  0.16162539  0.18108798  0.04828277    -0.71500
O153        O  0.24308987  0.14888105  0.90856379    -0.71900
O154        O  0.31815629  0.15520537  0.99427713    -0.71800
O155        O  0.32468743  0.11906127  0.03313010    -0.71600
C156        C  0.22408347  0.06098321  0.00773334     0.80200
C157        C  0.08084676  0.12342274  0.01268173     0.80600
C158        C  0.22296732  0.12747030  0.14803404     0.79600
C159        C  0.18042680  0.19629094  0.01891587     0.80000
C160        C  0.22250132  0.13222907  0.88348211     0.81100
C161        C  0.34342802  0.13778453  0.01254964     0.80200
Zn162      Zn  0.75823619  0.11071250  0.04353490     1.49700
Zn163      Zn  0.74716894  0.15640479  0.97082418     1.49400
Zn164      Zn  0.67667176  0.10886965  0.96347114     1.49100
Zn165      Zn  0.66898589  0.14620893  0.05252951     1.49500
O166        O  0.71280174  0.13052485  0.00712976    -1.81100
O167        O  0.82495789  0.12032062  0.02639952    -0.71700
O168        O  0.74437428  0.14853333  0.90033755    -0.71600
O169        O  0.69322972  0.07240316  0.97495812    -0.71100
O170        O  0.81883765  0.15620353  0.98663393    -0.71800
O171        O  0.75149669  0.07431415  0.02952416    -0.71400
O172        O  0.69464461  0.11618274  0.89438641    -0.71900
O173        O  0.60173288  0.13401051  0.04317717    -0.71300
O174        O  0.71474672  0.19033829  0.97931889    -0.72100
O175        O  0.60490653  0.11444099  0.97269667    -0.71500
O176        O  0.66211432  0.18237018  0.03751334    -0.71900
O177        O  0.68993161  0.14209362  0.12165336    -0.71800
O178        O  0.75192076  0.11617815  0.11450949    -0.71600
C179        C  0.84390019  0.13899796  0.00590761     0.80200
C180        C  0.72249150  0.13225215  0.87548430     0.80600
C181        C  0.72455510  0.06194937  0.00152482     0.79600
C182        C  0.58126540  0.12400347  0.00729845     0.80000
C183        C  0.68051300  0.19704561  0.00692381     0.81100
C184        C  0.72384059  0.12934513  0.13999830     0.80200
Zn185      Zn  0.42168932  0.35591922  0.55842774     1.49700
Zn186      Zn  0.43004197  0.39052070  0.46580804     1.49400
Zn187      Zn  0.51221262  0.39059929  0.54480675     1.49100
Zn188      Zn  0.49918946  0.34274150  0.47727882     1.49500
O189        O  0.46590319  0.36989706  0.51126359    -1.81100
O190        O  0.35405658  0.36751706  0.54692458    -0.71700
O191        O  0.44640788  0.42718743  0.47340506    -0.71600
O192        O  0.50741832  0.38657316  0.61647401    -0.71100
O193        O  0.35865430  0.38492811  0.47449740    -0.71800
O194        O  0.44319774  0.36240742  0.62677432    -0.71400
O195        O  0.50498101  0.42675156  0.52773113    -0.71900
O196        O  0.57151404  0.34387758  0.48990701    -0.71300
O197        O  0.44743830  0.38145201  0.39788828    -0.72100
O198        O  0.57854673  0.38080095  0.52587057    -0.71500
O199        O  0.49419755  0.34807150  0.40600321    -0.71900
O200        O  0.46730195  0.30908643  0.49121854    -0.71800
O201        O  0.41490366  0.31918657  0.54840093    -0.71600
C202        C  0.33433180  0.37620442  0.50935971     0.80200
C203        C  0.47790047  0.43834900  0.49862773     0.80600
C204        C  0.47847700  0.37477684  0.64351015     0.79600
C205        C  0.59700977  0.36176204  0.50611293     0.80000
C206        C  0.47328943  0.36423953  0.38007909     0.81100
C207        C  0.43322320  0.30338762  0.51986234     0.80200
Zn208      Zn  0.00029042  0.34483248  0.46057713     1.49700
Zn209      Zn  0.92137874  0.35375173  0.54211051     1.49400
Zn210      Zn  0.01123158  0.38902914  0.53693721     1.49100
Zn211      Zn  0.93035149  0.39301355  0.45652714     1.49500
O212        O  0.96589903  0.37016003  0.49847347    -1.81100
O213        O  0.96877270  0.31041311  0.46801716    -0.71700
O214        O  0.94040334  0.35702448  0.61158201    -0.71600
O215        O  0.07812949  0.37975190  0.51976346    -0.71100
O216        O  0.91597794  0.31771668  0.52634866    -0.71800
O217        O  0.07209727  0.34500701  0.47639791    -0.71400
O218        O  0.00402472  0.38199227  0.60719601    -0.71900
O219        O  0.94661936  0.42916204  0.47197002    -0.71300
O220        O  0.85421999  0.36562532  0.53199019    -0.72100
O221        O  0.00457999  0.42575430  0.52657333    -0.71500
O222        O  0.85829539  0.38728887  0.46392404    -0.71900
O223        O  0.94939422  0.38731933  0.38718837    -0.71800
O224        O  0.99713728  0.35402644  0.39056345    -0.71600
C225        C  0.93495615  0.30325736  0.49576414     0.80200
C226        C  0.97465596  0.36889196  0.63128005     0.80600
C227        C  0.09712928  0.36159670  0.49762944     0.79600
C228        C  0.97767943  0.43888063  0.49985928     0.80000
C229        C  0.83420724  0.37665653  0.49702525     0.81100
C230        C  0.97637543  0.37124196  0.36705471     0.80200
Zn231      Zn  0.07253560  0.64557544  0.44805777     1.49700
Zn232      Zn  0.06621238  0.60899687  0.53820326     1.49400
Zn233      Zn  0.99512038  0.65650391  0.53007323     1.49100
Zn234      Zn  0.98399071  0.61002505  0.45892255     1.49500
O235        O  0.02938101  0.63028719  0.49443400    -1.81100
O236        O  0.13968669  0.63348329  0.45660630    -0.71700
O237        O  0.04877294  0.61688297  0.60724530    -0.71600
O238        O  0.02686282  0.69059806  0.51923887    -0.71100
O239        O  0.13787895  0.61455758  0.52775334    -0.71800
O240        O  0.07916396  0.68185490  0.46117198    -0.71400
O241        O  0.99899162  0.64924583  0.60097475    -0.71900
O242        O  0.91734019  0.61958169  0.47580053    -0.71300
O243        O  0.05011813  0.57233904  0.52760494    -0.72100
O244        O  0.92317453  0.65580140  0.51450775    -0.71500
O245        O  0.99141301  0.57378384  0.47348621    -0.71900
O246        O  0.98959797  0.61488066  0.38783589    -0.71800
O247        O  0.05124267  0.64086802  0.37954130    -0.71600
C248        C  0.16082330  0.62376346  0.49233515     0.80200
C249        C  0.02113966  0.63311165  0.62603027     0.80600
C250        C  0.06067901  0.69700204  0.49081898     0.79600
C251        C  0.89824731  0.63842882  0.49554647     0.80000
C252        C  0.01885137  0.56163537  0.50132598     0.81100
C253        C  0.01738238  0.62790524  0.36182473     0.80200
Zn254      Zn  0.49549508  0.65583548  0.45695970     1.49700
Zn255      Zn  0.56626061  0.60823368  0.44792249     1.49400
Zn256      Zn  0.57275160  0.64450919  0.53874805     1.49100
Zn257      Zn  0.48395849  0.60913391  0.52735023     1.49500
O258        O  0.52957821  0.62943323  0.49213651    -1.81100
O259        O  0.49965529  0.64902430  0.38593819    -0.71700
O260        O  0.63797075  0.61402291  0.45789934    -0.71600
O261        O  0.57912076  0.68095727  0.52661313    -0.71100
O262        O  0.54853090  0.61632662  0.37898676    -0.71800
O263        O  0.52700475  0.68988179  0.46859025    -0.71400
O264        O  0.63996945  0.63266217  0.52934287    -0.71900
O265        O  0.48929294  0.61379806  0.59850698    -0.71300
O266        O  0.55049904  0.57148677  0.45860327    -0.72100
O267        O  0.55171423  0.63922792  0.60731351    -0.71500
O268        O  0.49171987  0.57293546  0.51275616    -0.71900
O269        O  0.41735045  0.61864565  0.51021435    -0.71800
O270        O  0.42352928  0.65503830  0.47218194    -0.71600
C271        C  0.52137507  0.63286346  0.36053912     0.80200
C272        C  0.66101452  0.62320397  0.49325523     0.80600
C273        C  0.56063753  0.69622242  0.49721104     0.79600
C274        C  0.51748048  0.62641265  0.62479246     0.80000
C275        C  0.51929567  0.56077649  0.48501779     0.81100
C276        C  0.39844023  0.63758612  0.49066117     0.80200
Zn277      Zn  0.99442437  0.34514459  0.03865748     1.49700
Zn278      Zn  0.07102954  0.35380670  0.95501841     1.49400
Zn279      Zn  0.98072702  0.38879135  0.96195459     1.49100
Zn280      Zn  0.06343557  0.39355757  0.04016384     1.49500
O281        O  0.02739489  0.37033762  0.99945887    -1.81100
O282        O  0.02614039  0.31087056  0.03119244    -0.71700
O283        O  0.04991593  0.35663640  0.88599751    -0.71600
O284        O  0.91449110  0.37986967  0.98214190    -0.71100
O285        O  0.07794979  0.31785669  0.97184429    -0.71800
O286        O  0.92220429  0.34521647  0.02550460    -0.71400
O287        O  0.98571217  0.38115616  0.89178905    -0.71900
O288        O  0.04677157  0.42955713  0.02397965    -0.71300
O289        O  0.13811538  0.36627740  0.96288911    -0.72100
O290        O  0.98794118  0.42557844  0.97047312    -0.71500
O291        O  0.13514641  0.38797222  0.03101730    -0.71900
O292        O  0.04633083  0.38819300  0.11017487    -0.71800
O293        O  0.99959881  0.35451226  0.10832388    -0.71600
C294        C  0.05973836  0.30361920  0.00328845     0.80200
C295        C  0.01480121  0.36819133  0.86708692     0.80600
C296        C  0.89638353  0.36184274  0.00536367     0.79600
C297        C  0.01534269  0.43897988  0.99613243     0.80000
C298        C  0.15865990  0.37745232  0.99738252     0.81100
C299        C  0.02044768  0.37192899  0.13115016     0.80200
Zn300      Zn  0.48163523  0.38918601  0.04930875     1.49700
Zn301      Zn  0.49324181  0.34533902  0.97211226     1.49400
Zn302      Zn  0.56477377  0.39267157  0.97080444     1.49100
Zn303      Zn  0.56984801  0.35295197  0.05605995     1.49500
O304        O  0.52729551  0.37007609  0.01155070    -1.81100
O305        O  0.41501269  0.38057060  0.02999210    -0.71700
O306        O  0.49872445  0.35470884  0.90241824    -0.71600
O307        O  0.54812232  0.42885079  0.98507437    -0.71100
O308        O  0.42113728  0.34610427  0.98578544    -0.71800
O309        O  0.48930123  0.42588135  0.03896623    -0.71400
O310        O  0.54882214  0.38704705  0.90066067    -0.71900
O311        O  0.63748550  0.36478676  0.04918959    -0.71300
O312        O  0.52373433  0.31076372  0.97899285    -0.72100
O313        O  0.63619278  0.38676306  0.98136818    -0.71500
O314        O  0.57563874  0.31715567  0.03842416    -0.71900
O315        O  0.54815891  0.35550323  0.12492364    -0.71800
O316        O  0.48660367  0.38180186  0.11978716    -0.71600
C317        C  0.39608353  0.36282480  0.00664343     0.80200
C318        C  0.52148731  0.37148461  0.87960871     0.80600
C319        C  0.51663947  0.43878668  0.01224389     0.79600
C320        C  0.65888391  0.37596268  0.01519039     0.80000
C321        C  0.55712016  0.30319319  0.00675469     0.81100
C322        C  0.51425639  0.36787149  0.14416744     0.80200
Zn323      Zn  0.50871169  0.60884555  0.95770470     1.49700
Zn324      Zn  0.42101098  0.64509680  0.94707606     1.49400
Zn325      Zn  0.42772213  0.60935567  0.03852469     1.49100
Zn326      Zn  0.49974406  0.65611961  0.02737985     1.49500
O327        O  0.46439637  0.62983150  0.99321034    -1.81100
O328        O  0.50163310  0.61277421  0.88645044    -0.71700
O329        O  0.35358077  0.63378207  0.95752272    -0.71600
O330        O  0.44275968  0.57249424  0.02937423    -0.71100
O331        O  0.44108366  0.63948168  0.87837483    -0.71800
O332        O  0.50116315  0.57285923  0.97473329    -0.71400
O333        O  0.35612118  0.61553620  0.02931993    -0.71900
O334        O  0.49778317  0.64936113  0.09855450    -0.71300
O335        O  0.41566596  0.68158654  0.95894818    -0.72100
O336        O  0.44673074  0.61769033  0.10691124    -0.71500
O337        O  0.46834409  0.69025991  0.01658996    -0.71900
O338        O  0.57100829  0.65514269  0.00978855    -0.71800
O339        O  0.57593315  0.61848632  0.97245970    -0.71600
C340        C  0.47402649  0.62592294  0.86049192     0.80200
C341        C  0.33282101  0.62466530  0.99409632     0.80600
C342        C  0.47379064  0.56126994  0.00356619     0.79600
C343        C  0.47552604  0.63368495  0.12458797     0.80000
C344        C  0.43458164  0.69675256  0.98825544     0.81100
C345        C  0.59546398  0.63756129  0.99092857     0.80200
Zn346      Zn  0.00971299  0.61031323  0.02970164     1.49700
Zn347      Zn  0.99881756  0.65659636  0.95828045     1.49400
Zn348      Zn  0.92885565  0.60885158  0.94916638     1.49100
Zn349      Zn  0.92030320  0.64552303  0.03911699     1.49500
O350        O  0.96448389  0.63033046  0.99352626    -1.81100
O351        O  0.07650504  0.62006210  0.01358706    -0.71700
O352        O  0.99651299  0.64920454  0.88739292    -0.71600
O353        O  0.94422859  0.57222917  0.96109797    -0.71100
O354        O  0.07034190  0.65631600  0.97505830    -0.71800
O355        O  0.00258960  0.57402571  0.01555599    -0.71400
O356        O  0.94811157  0.61634319  0.88044517    -0.71900
O357        O  0.85326951  0.63360691  0.02853537    -0.71300
O358        O  0.96649575  0.69055082  0.96840339    -0.72100
O359        O  0.85709889  0.61472815  0.95739261    -0.71500
O360        O  0.91404585  0.68189821  0.02637086    -0.71900
O361        O  0.94009969  0.64054818  0.10807635    -0.71800
O362        O  0.00295949  0.61525761  0.10063795    -0.71600
C363        C  0.09540591  0.63905753  0.99418605     0.80200
C364        C  0.97555092  0.63277150  0.86206005     0.80600
C365        C  0.97525025  0.56169714  0.98791844     0.79600
C366        C  0.83316873  0.62401191  0.99207431     0.80000
C367        C  0.93259636  0.69699798  0.99667684     0.81100
C368        C  0.97418141  0.62791028  0.12626939     0.80200
C369        C  0.78181431  0.62533527  0.98934930    -0.15500
C370        C  0.73924391  0.62945698  0.98910431     0.08600
C371        C  0.68977685  0.63519324  0.99015347     0.10400
C372        C  0.64692032  0.63837910  0.99105430    -0.16300
C373        C  0.14684258  0.64012603  0.99341642    -0.15500
C374        C  0.18968497  0.63688179  0.99434825     0.08600
C375        C  0.23902006  0.63085979  0.99590708     0.10400
C376        C  0.28147007  0.62640064  0.99625091    -0.16300
C377        C  0.51014607  0.46532689  0.01178988    -0.15500
C378        C  0.50086202  0.48727812  0.01115377     0.08600
C379        C  0.48850728  0.51280606  0.00976273     0.10400
C380        C  0.47954169  0.53476705  0.00762944    -0.16300
C381        C  0.84507684  0.36125767  0.00973514    -0.15500
C382        C  0.80230245  0.36462936  0.01184045     0.08600
C383        C  0.75288223  0.37051010  0.01308090     0.10400
C384        C  0.71032160  0.37467642  0.01384701    -0.16300
C385        C  0.34472215  0.36268547  0.00296946    -0.15500
C386        C  0.30201481  0.36633006  0.00135828     0.08600
C387        C  0.25265833  0.37235001  0.00039148     0.10400
C388        C  0.21008424  0.37645499  0.99946314    -0.16300
C389        C  0.00937079  0.46552410  0.99396116    -0.15500
C390        C  0.00071904  0.48749797  0.99126689     0.08600
C391        C  0.98913339  0.51307733  0.98825484     0.10400
C392        C  0.98069204  0.53510608  0.98691770    -0.16300
C393        C  0.51385125  0.63305353  0.30951529    -0.15500
C394        C  0.50506831  0.63330836  0.26712149     0.08600
C395        C  0.49355578  0.63359299  0.21770546     0.10400
C396        C  0.48425607  0.63373118  0.17541992    -0.16300
C397        C  0.50965283  0.62638002  0.67559693    -0.15500
C398        C  0.50090216  0.62621591  0.71790115     0.08600
C399        C  0.48981859  0.62596848  0.76725361     0.10400
C400        C  0.48129740  0.62583674  0.80960491    -0.16300
C401        C  0.84676899  0.63918633  0.49666569    -0.15500
C402        C  0.80402733  0.63557892  0.49537937     0.08600
C403        C  0.75485660  0.62922722  0.49295536     0.10400
C404        C  0.71243786  0.62469310  0.49180466    -0.16300
C405        C  0.21227119  0.62491860  0.49333665    -0.15500
C406        C  0.25481784  0.62909041  0.49218031     0.08600
C407        C  0.30417579  0.63503785  0.49008119     0.10400
C408        C  0.34699089  0.63840467  0.48918769    -0.16300
C409        C  0.00949762  0.62820119  0.31107293    -0.15500
C410        C  0.00074315  0.62832332  0.26879916     0.08600
C411        C  0.98969573  0.62831433  0.21948140     0.10400
C412        C  0.98125696  0.62818829  0.17714282    -0.16300
C413        C  0.98411991  0.63256659  0.81120110    -0.15500
C414        C  0.99331268  0.63257790  0.76888402     0.08600
C415        C  0.00475412  0.63273378  0.71944322     0.10400
C416        C  0.01353399  0.63291328  0.67704089    -0.16300
C417        C  0.98464650  0.37273821  0.31627263    -0.15500
C418        C  0.99368041  0.37352838  0.27397692     0.08600
C419        C  0.00494881  0.37380349  0.22454434     0.10400
C420        C  0.01346535  0.37337278  0.18212432    -0.16300
C421        C  0.98108443  0.36729236  0.68212972    -0.15500
C422        C  0.98884881  0.36640945  0.72455191     0.08600
C423        C  0.99911572  0.36610972  0.77401532     0.10400
C424        C  0.00732264  0.36661184  0.81637771    -0.16300
C425        C  0.98390652  0.46544091  0.50069730    -0.15500
C426        C  0.99274043  0.48743557  0.50198661     0.08600
C427        C  0.00451842  0.51303967  0.50328945     0.10400
C428        C  0.01315135  0.53506488  0.50336121    -0.16300
C429        C  0.78278177  0.37546570  0.49411395    -0.15500
C430        C  0.74021690  0.37121551  0.49431674     0.08600
C431        C  0.69090706  0.36510408  0.49700983     0.10400
C432        C  0.64829171  0.36146895  0.50075165    -0.16300
C433        C  0.28310355  0.37429732  0.50501841    -0.15500
C434        C  0.24078558  0.36988608  0.50122425     0.05400
C435        C  0.19147162  0.36397641  0.49763260     0.10400
C436        C  0.14861760  0.36073281  0.49625135    -0.16300
C437        C  0.48029756  0.36345779  0.32918001    -0.15500
C438        C  0.48810730  0.36360701  0.28669501     0.08600
C439        C  0.49820962  0.36457884  0.23716978     0.10400
C440        C  0.50638981  0.36591001  0.19482902    -0.16300
C441        C  0.51495952  0.37312668  0.82859679    -0.15500
C442        C  0.50675655  0.37412128  0.78615761     0.08600
C443        C  0.49573340  0.37483155  0.73669430     0.10400
C444        C  0.48678601  0.37503769  0.69436277    -0.16300
C445        C  0.51393731  0.53417176  0.48354209    -0.15500
C446        C  0.50540870  0.51214515  0.48499333     0.08600
C447        C  0.49358591  0.48661152  0.48886334     0.10400
C448        C  0.48457120  0.46473694  0.49316478    -0.16300
C449        C  0.65888219  0.22123641  0.00191518    -0.15500
C450        C  0.63394682  0.23962197  0.99946416     0.08600
C451        C  0.60223399  0.26026459  0.99899252     0.10400
C452        C  0.57766687  0.27879684  0.00101232    -0.16300
C453        C  0.89533831  0.13969100  0.00381605    -0.15500
C454        C  0.93810908  0.13614378  0.00387735     0.08600
C455        C  0.98731822  0.12984929  0.00572149     0.10400
C456        C  0.02962854  0.12524845  0.00845409    -0.16300
C457        C  0.39483268  0.13827103  0.00873840    -0.15500
C458        C  0.43763419  0.13494794  0.00632401     0.08600
C459        C  0.48716101  0.12922015  0.00481625     0.10400
C460        C  0.52980551  0.12518998  0.00499623    -0.16300
C461        C  0.15956244  0.22078973  0.01597214    -0.15500
C462        C  0.13551246  0.23952834  0.01403393     0.08600
C463        C  0.10479730  0.26057357  0.01163844     0.10400
C464        C  0.08070232  0.27925959  0.00868444    -0.16300
C465        C  0.83198434  0.77964518  0.99820169    -0.15500
C466        C  0.85631712  0.76104648  0.99530740     0.08600
C467        C  0.88739508  0.74014111  0.99356071     0.10400
C468        C  0.91170078  0.72147422  0.99381115    -0.16300
C469        C  0.73110471  0.03543972  0.99923896    -0.15500
C470        C  0.74031334  0.01348463  0.99822855     0.08600
C471        C  0.75257562  0.98793687  0.99796874     0.10400
C472        C  0.76163953  0.96596090  0.99844034    -0.16300
C473        C  0.59674466  0.86234566  0.99473630    -0.15500
C474        C  0.55405153  0.86568850  0.99121495     0.08600
C475        C  0.50467770  0.87139975  0.98746057     0.10400
C476        C  0.46216191  0.87543870  0.98453416    -0.16300
C477        C  0.96232686  0.87545099  0.99943075    -0.15500
C478        C  0.00478683  0.87113921  0.99673985     0.08600
C479        C  0.05409478  0.86510295  0.99346411     0.10400
C480        C  0.09678333  0.86156850  0.99025715    -0.16300
C481        C  0.33381312  0.77930951  0.98567689    -0.15500
C482        C  0.35856212  0.76085555  0.98865821     0.08600
C483        C  0.38988609  0.74004362  0.99064415     0.10400
C484        C  0.41414624  0.72135384  0.99068638    -0.16300
C485        C  0.23079316  0.03452287  0.00387411    -0.15500
C486        C  0.23982815  0.01263040  0.99996499     0.08600
C487        C  0.25179114  0.98715485  0.99519707     0.10400
C488        C  0.26077942  0.96524829  0.99148333    -0.16300
C489        C  0.83471773  0.22069343  0.49854760    -0.15500
C490        C  0.85941181  0.23910431  0.49438686     0.08600
C491        C  0.89059699  0.25994375  0.49153178     0.10400
C492        C  0.91473055  0.27867421  0.49162048    -0.16300
C493        C  0.76195299  0.13078988  0.32455708    -0.15500
C494        C  0.75263727  0.13054785  0.28234010     0.08600
C495        C  0.74072932  0.13034330  0.23311845     0.10400
C496        C  0.73156599  0.13003720  0.19086927    -0.16300
C497        C  0.76026769  0.13076855  0.69062507    -0.15500
C498        C  0.75126111  0.13123649  0.73294272     0.08600
C499        C  0.73966359  0.13154101  0.78229783     0.10400
C500        C  0.73055742  0.13178418  0.82460100    -0.16300
C501        C  0.46258831  0.12543053  0.50767972    -0.15500
C502        C  0.50497284  0.12984339  0.50481110     0.08600
C503        C  0.55432401  0.13584721  0.50290472     0.10400
C504        C  0.59715285  0.13921931  0.50293080    -0.16300
C505        C  0.09733178  0.13734137  0.50832344    -0.15500
C506        C  0.05458253  0.13390330  0.50599160     0.08600
C507        C  0.00509081  0.12816307  0.50471202     0.10400
C508        C  0.96243587  0.12422934  0.50506306    -0.16300
C509        C  0.41156417  0.27902666  0.51810867    -0.15500
C510        C  0.38692634  0.26046692  0.51694789     0.08600
C511        C  0.35572376  0.23956252  0.51629896     0.10400
C512        C  0.33148195  0.22085673  0.51678330    -0.16300
C513        C  0.26082939  0.13162998  0.33262308    -0.15500
C514        C  0.25144203  0.13072363  0.29043248     0.08600
C515        C  0.23973392  0.12942177  0.24118879     0.10400
C516        C  0.23074840  0.12837026  0.19892312    -0.16300
C517        C  0.26102911  0.12827110  0.69884639    -0.15500
C518        C  0.25201784  0.12939857  0.74112997     0.08600
C519        C  0.24038404  0.13077082  0.79042828     0.10400
C520        C  0.23110162  0.13170247  0.83266987    -0.16300
C521        C  0.66071475  0.77909343  0.49963685    -0.15500
C522        C  0.63635124  0.76049462  0.49692970     0.08600
C523        C  0.60543318  0.73951833  0.49511782     0.10400
C524        C  0.58132606  0.72077737  0.49504334    -0.16300
C525        C  0.73091267  0.86937304  0.32064686    -0.15500
C526        C  0.73982612  0.86973674  0.27835105     0.08600
C527        C  0.75127129  0.87011753  0.22903682     0.10400
C528        C  0.76012970  0.87056254  0.18673294    -0.16300
C529        C  0.73443675  0.87085718  0.68663902    -0.15500
C530        C  0.74320139  0.87067089  0.72897855     0.08600
C531        C  0.75447743  0.87051741  0.77835392     0.10400
C532        C  0.76326562  0.87026105  0.82068714    -0.16300
C533        C  0.73313457  0.96523868  0.49822323    -0.15500
C534        C  0.74172567  0.98726761  0.49819149     0.08600
C535        C  0.75325172  0.01290627  0.49899473     0.10400
C536        C  0.76190163  0.03491970  0.50025296    -0.16300
C537        C  0.03175997  0.87431123  0.48497611    -0.15500
C538        C  0.98934363  0.86991810  0.48760585     0.08600
C539        C  0.94004467  0.86391487  0.49081520     0.10400
C540        C  0.89732358  0.86053871  0.49399181    -0.16300
C541        C  0.39752828  0.86210331  0.48831211    -0.15500
C542        C  0.44024645  0.86542219  0.49170875     0.08600
C543        C  0.48963436  0.87110535  0.49561224     0.10400
C544        C  0.53212588  0.87516940  0.49885812    -0.16300
C545        C  0.16213341  0.77927010  0.48683759    -0.15500
C546        C  0.13751665  0.76080782  0.49037022     0.08600
C547        C  0.10609946  0.74006936  0.49298512     0.10400
C548        C  0.08157765  0.72148335  0.49335916    -0.16300
C549        C  0.23400424  0.87040133  0.29794025    -0.15500
C550        C  0.24296292  0.86975461  0.25566914     0.08600
C551        C  0.25448529  0.86910385  0.20638886     0.10400
C552        C  0.26343047  0.86862387  0.16410824    -0.16300
C553        C  0.23118845  0.86917892  0.66403052    -0.15500
C554        C  0.23973011  0.86962983  0.70641489     0.08600
C555        C  0.25065448  0.87017133  0.75587082     0.10400
C556        C  0.25928496  0.87069749  0.79823492    -0.16300
C557        C  0.23205830  0.96525379  0.49062103    -0.15500
C558        C  0.24114579  0.98712934  0.49443548     0.08600
C559        C  0.25330913  0.01254430  0.49942426     0.10400
C560        C  0.26240382  0.03440541  0.50353264    -0.16300
loop_ 
_geom_bond_atom_site_label_1 
_geom_bond_atom_site_label_2 
_geom_bond_distance 
_geom_bond_site_symmetry_2 
_ccdc_geom_bond_type 
Zn1           O5   1.942       .  S
Zn1           O6   1.991       .  S
Zn1          O10   2.006       .  S
Zn1          O17   2.011       .  S
Zn2           O5   1.966       .  S
Zn2           O7   2.013       .  S
Zn2           O9   2.039       .  S
Zn2          O13   2.046       .  S
Zn3           O5   1.959       .  S
Zn3           O8   2.030       .  S
Zn3          O11   2.025       .  S
Zn3          O14   2.029       .  S
Zn4           O5   1.949       .  S
Zn4          O12   2.001       .  S
Zn4          O15   1.998       .  S
Zn4          O16   2.024       .  S
O6           C18   1.269       .  A
O7           C19   1.271       .  A
O8           C20   1.274       .  A
O9           C18   1.276       .  A
O10          C20   1.271       .  A
O11          C19   1.273       .  A
O12          C21   1.271       .  A
O13          C22   1.276       .  A
O14          C21   1.275       .  A
O15          C22   1.269       .  A
O16          C23   1.273       .  A
O17          C23   1.271       .  A
C18         C541   1.433       .  S
C19         C553   1.437       .  S
C20         C557   1.435       .  S
C21         C537   1.433       .  S
C22         C545   1.439       .  S
C23         C549   1.435       .  S
Zn24         O28   1.941       .  S
Zn24         O29   2.004       .  S
Zn24         O33   1.988       .  S
Zn24         O40   2.010       .  S
Zn25         O28   1.960       .  S
Zn25         O30   2.024       .  S
Zn25         O32   2.035       .  S
Zn25         O36   2.027       .  S
Zn26         O28   1.967       .  S
Zn26         O31   2.041       .  S
Zn26         O34   2.011       .  S
Zn26         O37   2.047       .  S
Zn27         O28   1.950       .  S
Zn27         O35   2.001       .  S
Zn27         O38   2.003       .  S
Zn27         O39   2.028       .  S
O29          C41   1.270       .  A
O30          C42   1.273       .  A
O31          C43   1.276       .  A
O32          C41   1.274       .  A
O33          C43   1.269       .  A
O34          C42   1.271       .  A
O35          C44   1.270       .  A
O36          C45   1.274       .  A
O37          C44   1.276       .  A
O38          C45   1.271       .  A
O39          C46   1.273       .  A
O40          C46   1.271       .  A
C41         C533   1.436       .  S
C42         C525   1.435       .  S
C43         C540   1.433       .  S
C44         C521   1.440       .  S
C45         C544   1.433       .  S
C46         C529   1.436       .  S
Zn47         O51   1.943       .  S
Zn47         O52   1.988       .  S
Zn47         O56   2.016       .  S
Zn47         O63   2.007       .  S
Zn48         O51   1.969       .  S
Zn48         O53   2.054       .  S
Zn48         O55   2.041       .  S
Zn48         O59   2.019       .  S
Zn49         O51   1.949       .  S
Zn49         O54   2.027       .  S
Zn49         O57   1.996       .  S
Zn49         O60   2.003       .  S
Zn50         O51   1.959       .  S
Zn50         O58   2.026       .  S
Zn50         O61   2.022       .  S
Zn50         O62   2.029       .  S
O52          C64   1.269       .  A
O53          C65   1.277       .  A
O54          C66   1.273       .  A
O55          C64   1.276       .  A
O56          C66   1.271       .  A
O57          C65   1.269       .  A
O58          C67   1.274       .  A
O59          C68   1.272       .  A
O60          C67   1.272       .  A
O61          C68   1.272       .  A
O62          C69   1.274       .  A
O63          C69   1.271       .  A
C64         C505   1.433       .  S
C65         C512   1.440       .  S
C66         C517   1.438       .  S
C67         C501   1.433       .  S
C68         C513   1.437       .  S
C69         C560   1.436       .  S
Zn70         O74   1.948       .  S
Zn70         O75   2.001       .  S
Zn70         O79   1.999       .  S
Zn70         O86   2.029       .  S
Zn71         O74   1.966       .  S
Zn71         O76   2.010       .  S
Zn71         O78   2.047       .  S
Zn71         O82   2.041       .  S
Zn72         O74   1.961       .  S
Zn72         O77   2.031       .  S
Zn72         O80   2.028       .  S
Zn72         O83   2.034       .  S
Zn73         O74   1.940       .  S
Zn73         O81   2.005       .  S
Zn73         O84   1.986       .  S
Zn73         O85   2.012       .  S
O75          C87   1.270       .  A
O76          C88   1.271       .  A
O77          C89   1.275       .  A
O78          C87   1.276       .  A
O79          C89   1.271       .  A
O80          C88   1.273       .  A
O81          C90   1.271       .  A
O82          C91   1.276       .  A
O83          C90   1.274       .  A
O84          C91   1.269       .  A
O85          C92   1.271       .  A
O86          C92   1.273       .  A
C87         C489   1.440       .  S
C88         C493   1.436       .  S
C89         C508   1.433       .  S
C90         C536   1.436       .  S
C91         C504   1.432       .  S
C92         C497   1.437       .  S
Zn93         O97   1.949       .  S
Zn93         O98   1.999       .  S
Zn93        O102   2.003       .  S
Zn93        O109   2.026       .  S
Zn94         O97   1.967   1_554  S
Zn94         O99   2.011       .  S
Zn94        O101   2.048       .  S
Zn94        O105   2.042       .  S
Zn95         O97   1.959   1_554  S
Zn95        O100   2.026       .  S
Zn95        O103   2.022       .  S
Zn95        O106   2.031       .  S
Zn96         O97   1.942       .  S
Zn96        O104   2.009       .  S
Zn96        O107   1.989       .  S
Zn96        O108   2.014       .  S
O98         C110   1.269       .  A
O99         C111   1.271       .  A
O100        C112   1.274   1_554  A
O101        C110   1.276   1_554  A
O102        C112   1.271       .  A
O103        C111   1.272       .  A
O104        C113   1.271       .  A
O105        C114   1.276   1_554  A
O106        C113   1.274   1_554  A
O107        C114   1.269       .  A
O108        C115   1.271       .  A
O109        C115   1.273       .  A
C110        C481   1.440       .  S
C111        C552   1.435       .  S
C112        C476   1.433       .  S
C113        C488   1.437       .  S
C114        C480   1.434       .  S
C115        C556   1.437       .  S
Zn116       O120   1.941       .  S
Zn116       O121   2.009       .  S
Zn116       O125   1.989       .  S
Zn116       O132   2.003       .  S
Zn117       O120   1.950       .  S
Zn117       O122   1.998       .  S
Zn117       O124   2.025       .  S
Zn117       O128   2.001       .  S
Zn118       O120   1.967   1_556  S
Zn118       O123   2.039       .  S
Zn118       O126   2.046       .  S
Zn118       O129   2.011       .  S
Zn119       O120   1.961   1_556  S
Zn119       O127   2.027       .  S
Zn119       O130   2.031       .  S
Zn119       O131   2.035       .  S
O121        C133   1.271       .  A
O122        C134   1.269       .  A
O123        C135   1.276       .  A
O124        C133   1.273       .  A
O125        C135   1.269   1_554  A
O126        C134   1.276   1_556  A
O127        C136   1.273       .  A
O128        C137   1.271       .  A
O129        C136   1.271       .  A
O130        C137   1.275   1_556  A
O131        C138   1.274       .  A
O132        C138   1.270   1_554  A
C133        C528   1.435       .  S
C134        C465   1.439   1_554  S
C135        C473   1.433       .  S
C136        C532   1.436       .  S
C137        C477   1.434   1_554  S
C138        C472   1.436       .  S
Zn139       O143   1.943       .  S
Zn139       O144   2.009       .  S
Zn139       O148   2.015       .  S
Zn139       O155   1.990       .  S
Zn140       O143   1.959   1_556  S
Zn140       O145   2.027       .  S
Zn140       O147   2.031       .  S
Zn140       O151   2.023       .  S
Zn141       O143   1.950       .  S
Zn141       O146   2.026       .  S
Zn141       O149   2.001       .  S
Zn141       O152   1.997       .  S
Zn142       O143   1.969   1_556  S
Zn142       O150   2.051       .  S
Zn142       O153   2.019       .  S
Zn142       O154   2.041       .  S
O144        C156   1.271       .  A
O145        C157   1.274   1_556  A
O146        C158   1.273       .  A
O147        C156   1.274   1_556  A
O148        C158   1.271       .  A
O149        C157   1.271       .  A
O150        C159   1.277   1_556  A
O151        C160   1.272       .  A
O152        C159   1.269       .  A
O153        C160   1.272       .  A
O154        C161   1.276   1_556  A
O155        C161   1.269       .  A
C156        C485   1.437       .  S
C157        C456   1.433       .  S
C158        C516   1.437       .  S
C159        C461   1.440       .  S
C160        C520   1.438       .  S
C161        C457   1.434       .  S
Zn162       O166   1.939       .  S
Zn162       O167   1.984       .  S
Zn162       O171   2.001       .  S
Zn162       O178   2.009       .  S
Zn163       O166   1.967   1_556  S
Zn163       O168   2.013       .  S
Zn163       O170   2.042       .  S
Zn163       O174   2.046       .  S
Zn164       O166   1.961   1_556  S
Zn164       O169   2.036       .  S
Zn164       O172   2.029       .  S
Zn164       O175   2.034       .  S
Zn165       O166   1.948       .  S
Zn165       O173   1.999       .  S
Zn165       O176   1.995       .  S
Zn165       O177   2.027       .  S
O167        C179   1.269       .  A
O168        C180   1.271       .  A
O169        C181   1.274   1_556  A
O170        C179   1.276   1_556  A
O171        C181   1.270       .  A
O172        C180   1.273       .  A
O173        C182   1.271       .  A
O174        C183   1.276   1_556  A
O175        C182   1.275   1_556  A
O176        C183   1.269       .  A
O177        C184   1.273       .  A
O178        C184   1.270       .  A
C179        C453   1.432       .  S
C180        C500   1.437       .  S
C181        C469   1.436   1_554  S
C182        C460   1.434       .  S
C183        C449   1.438       .  S
C184        C496   1.436       .  S
Zn185       O189   1.950       .  S
Zn185       O190   2.007       .  S
Zn185       O194   2.029       .  S
Zn185       O201   2.001       .  S
Zn186       O189   1.957       .  S
Zn186       O191   2.031       .  S
Zn186       O193   2.022       .  S
Zn186       O197   2.015       .  S
Zn187       O189   1.942       .  S
Zn187       O192   2.015       .  S
Zn187       O195   2.009       .  S
Zn187       O198   1.989       .  S
Zn188       O189   1.969       .  S
Zn188       O196   2.043       .  S
Zn188       O199   2.014       .  S
Zn188       O200   2.050       .  S
O190        C202   1.272       .  A
O191        C203   1.274       .  A
O192        C204   1.272       .  A
O193        C202   1.274       .  A
O194        C204   1.274       .  A
O195        C203   1.271       .  A
O196        C205   1.277       .  A
O197        C206   1.271       .  A
O198        C205   1.269       .  A
O199        C206   1.271       .  A
O200        C207   1.276       .  A
O201        C207   1.270       .  A
C202        C433   1.433       .  S
C203        C448   1.437       .  S
C204        C444   1.438       .  S
C205        C432   1.434       .  S
C206        C437   1.434       .  S
C207        C509   1.441       .  S
Zn208       O212   1.969   1_455  S
Zn208       O213   2.056   1_455  S
Zn208       O217   2.045       .  S
Zn208       O224   2.017   1_455  S
Zn209       O212   1.947       .  S
Zn209       O214   2.017       .  S
Zn209       O216   1.989       .  S
Zn209       O220   1.994       .  S
Zn210       O212   1.941   1_455  S
Zn210       O215   1.984       .  S
Zn210       O218   2.006       .  S
Zn210       O221   2.001       .  S
Zn211       O212   1.963       .  S
Zn211       O219   2.039       .  S
Zn211       O222   2.038       .  S
Zn211       O223   2.028       .  S
O213        C225   1.277       .  A
O214        C226   1.271       .  A
O215        C227   1.269       .  A
O216        C225   1.268       .  A
O217        C227   1.276       .  A
O218        C226   1.270   1_455  A
O219        C228   1.275       .  A
O220        C229   1.270       .  A
O221        C228   1.270   1_455  A
O222        C229   1.275       .  A
O223        C230   1.274       .  A
O224        C230   1.272       .  A
C225        C492   1.439       .  S
C226        C421   1.433       .  S
C227        C436   1.433       .  S
C228        C425   1.437       .  S
C229        C429   1.434       .  S
C230        C417   1.437       .  S
Zn231       O235   1.946       .  S
Zn231       O236   1.991       .  S
Zn231       O240   1.990       .  S
Zn231       O247   2.017       .  S
Zn232       O235   1.962       .  S
Zn232       O237   2.030       .  S
Zn232       O239   2.036       .  S
Zn232       O243   2.040       .  S
Zn233       O235   1.968   1_655  S
Zn233       O238   2.054   1_655  S
Zn233       O241   2.019       .  S
Zn233       O244   2.048       .  S
Zn234       O235   1.939   1_655  S
Zn234       O242   1.979       .  S
Zn234       O245   1.998       .  S
Zn234       O246   2.006       .  S
O236        C248   1.270       .  A
O237        C249   1.274       .  A
O238        C250   1.277       .  A
O239        C248   1.276       .  A
O240        C250   1.268       .  A
O241        C249   1.272   1_655  A
O242        C251   1.268       .  A
O243        C252   1.275       .  A
O244        C251   1.277       .  A
O245        C252   1.270   1_655  A
O246        C253   1.270   1_655  A
O247        C253   1.271       .  A
C248        C405   1.432       .  S
C249        C416   1.439       .  S
C250        C548   1.439       .  S
C251        C401   1.432       .  S
C252        C428   1.436       .  S
C253        C409   1.433       .  S
Zn254       O258   1.968       .  S
Zn254       O259   2.018       .  S
Zn254       O263   2.053       .  S
Zn254       O270   2.046       .  S
Zn255       O258   1.963       .  S
Zn255       O260   2.038       .  S
Zn255       O262   2.033       .  S
Zn255       O266   2.043       .  S
Zn256       O258   1.947       .  S
Zn256       O261   1.994       .  S
Zn256       O264   1.991       .  S
Zn256       O267   2.020       .  S
Zn257       O258   1.939       .  S
Zn257       O265   2.007       .  S
Zn257       O268   1.997       .  S
Zn257       O269   1.980       .  S
O259        C271   1.272       .  A
O260        C272   1.276       .  A
O261        C273   1.269       .  A
O262        C271   1.274       .  A
O263        C273   1.277       .  A
O264        C272   1.270       .  A
O265        C274   1.270       .  A
O266        C275   1.275       .  A
O267        C274   1.272       .  A
O268        C275   1.269       .  A
O269        C276   1.268       .  A
O270        C276   1.277       .  A
C271        C393   1.439       .  S
C272        C404   1.433       .  S
C273        C524   1.440       .  S
C274        C397   1.434       .  S
C275        C445   1.437       .  S
C276        C408   1.432       .  S
Zn277       O281   1.966   1_654  S
Zn277       O282   2.051   1_655  S
Zn277       O286   2.042       .  S
Zn277       O293   2.013       .  S
Zn278       O281   1.948       .  S
Zn278       O283   2.019       .  S
Zn278       O285   1.996       .  S
Zn278       O289   1.994       .  S
Zn279       O281   1.940   1_655  S
Zn279       O284   1.984       .  S
Zn279       O287   2.005       .  S
Zn279       O290   1.999       .  S
Zn280       O281   1.962   1_554  S
Zn280       O288   2.038       .  S
Zn280       O291   2.032       .  S
Zn280       O292   2.030       .  S
O282        C294   1.276       .  A
O283        C295   1.272       .  A
O284        C296   1.269   1_556  A
O285        C294   1.269   1_556  A
O286        C296   1.276       .  A
O287        C295   1.270   1_655  A
O288        C297   1.275   1_554  A
O289        C298   1.270       .  A
O290        C297   1.270   1_655  A
O291        C298   1.275   1_554  A
O292        C299   1.274       .  A
O293        C299   1.271   1_655  A
C294        C464   1.440       .  S
C295        C424   1.433       .  S
C296        C381   1.432       .  S
C297        C389   1.436       .  S
C298        C388   1.432       .  S
C299        C420   1.437       .  S
Zn300       O304   1.942       .  S
Zn300       O305   1.985       .  S
Zn300       O309   2.002       .  S
Zn300       O316   2.011       .  S
Zn301       O304   1.968   1_556  S
Zn301       O306   2.014       .  S
Zn301       O308   2.041       .  S
Zn301       O312   2.050       .  S
Zn302       O304   1.962   1_556  S
Zn302       O307   2.036       .  S
Zn302       O310   2.030       .  S
Zn302       O313   2.033       .  S
Zn303       O304   1.947       .  S
Zn303       O311   1.994       .  S
Zn303       O314   1.990       .  S
Zn303       O315   2.018       .  S
O305        C317   1.269       .  A
O306        C318   1.271       .  A
O307        C319   1.274   1_556  A
O308        C317   1.276   1_556  A
O309        C319   1.270       .  A
O310        C318   1.273       .  A
O311        C320   1.270       .  A
O312        C321   1.276   1_556  A
O313        C320   1.275   1_556  A
O314        C321   1.268       .  A
O315        C322   1.271       .  A
O316        C322   1.270       .  A
C317        C385   1.432       .  S
C318        C441   1.438       .  S
C319        C377   1.436       .  S
C320        C384   1.432       .  S
C321        C452   1.438       .  S
C322        C440   1.434       .  S
Zn323       O327   1.941       .  S
Zn323       O328   2.009       .  S
Zn323       O332   2.001       .  S
Zn323       O339   1.983       .  S
Zn324       O327   1.946       .  S
Zn324       O329   1.992       .  S
Zn324       O331   2.018       .  S
Zn324       O335   1.992       .  S
Zn325       O327   1.961   1_554  S
Zn325       O330   2.038       .  S
Zn325       O333   2.035       .  S
Zn325       O336   2.030       .  S
Zn326       O327   1.967   1_554  S
Zn326       O334   2.019       .  S
Zn326       O337   2.052       .  S
Zn326       O338   2.042       .  S
O328        C340   1.270       .  A
O329        C341   1.270       .  A
O330        C342   1.275       .  A
O331        C340   1.272       .  A
O332        C342   1.270   1_556  A
O333        C341   1.275   1_554  A
O334        C343   1.272       .  A
O335        C344   1.268       .  A
O336        C343   1.274       .  A
O337        C344   1.276   1_554  A
O338        C345   1.276   1_554  A
O339        C345   1.269       .  A
C340        C400   1.434       .  S
C341        C376   1.432       .  S
C342        C380   1.436       .  S
C343        C396   1.439       .  S
C344        C484   1.439       .  S
C345        C372   1.432       .  S
Zn346       O350   1.938   1_454  S
Zn346       O351   1.981       .  S
Zn346       O355   1.997       .  S
Zn346       O362   2.005       .  S
Zn347       O350   1.966       .  S
Zn347       O352   2.018       .  S
Zn347       O354   2.044   1_655  S
Zn347       O358   2.052       .  S
Zn348       O350   1.961       .  S
Zn348       O353   2.039       .  S
Zn348       O356   2.030       .  S
Zn348       O359   2.033       .  S
Zn349       O350   1.947   1_554  S
Zn349       O357   1.993       .  S
Zn349       O360   1.993       .  S
Zn349       O361   2.019       .  S
O351        C363   1.268   1_554  A
O352        C364   1.272       .  A
O353        C365   1.275       .  A
O354        C363   1.277       .  A
O355        C365   1.269   1_454  A
O356        C364   1.274       .  A
O357        C366   1.270   1_554  A
O358        C367   1.276       .  A
O359        C366   1.275       .  A
O360        C367   1.269   1_554  A
O361        C368   1.272       .  A
O362        C368   1.270   1_455  A
C363        C373   1.432       .  S
C364        C413   1.439       .  S
C365        C392   1.436       .  S
C366        C369   1.432       .  S
C367        C468   1.439       .  S
C368        C412   1.433       .  S
C369        C370   1.204       .  T
C370        C371   1.410       .  S
C371        C372   1.204       .  T
C373        C374   1.204       .  T
C374        C375   1.410       .  S
C375        C376   1.204       .  T
C377        C378   1.206       .  T
C378        C379   1.413       .  S
C379        C380   1.206       .  T
C381        C382   1.205       .  T
C382        C383   1.410       .  S
C383        C384   1.205       .  T
C385        C386   1.204       .  T
C386        C387   1.410       .  S
C387        C388   1.205   1_554  T
C389        C390   1.206       .  T
C390        C391   1.413   1_455  S
C391        C392   1.206       .  T
C393        C394   1.208       .  T
C394        C395   1.416       .  S
C395        C396   1.208       .  T
C397        C398   1.205       .  T
C398        C399   1.411       .  S
C399        C400   1.205       .  T
C401        C402   1.205       .  T
C402        C403   1.411       .  S
C403        C404   1.205       .  T
C405        C406   1.205       .  T
C406        C407   1.410       .  S
C407        C408   1.205       .  T
C409        C410   1.204       .  T
C410        C411   1.410   1_455  S
C411        C412   1.205       .  T
C413        C414   1.208       .  T
C414        C415   1.415   1_655  S
C415        C416   1.208       .  T
C417        C418   1.207       .  T
C418        C419   1.414   1_655  S
C419        C420   1.207       .  T
C421        C422   1.204       .  T
C422        C423   1.410       .  S
C423        C424   1.204   1_655  T
C425        C426   1.207       .  T
C426        C427   1.414   1_655  S
C427        C428   1.207       .  T
C429        C430   1.205       .  T
C430        C431   1.412       .  S
C431        C432   1.205       .  T
C433        C434   1.205       .  T
C434        C435   1.411       .  S
C435        C436   1.205       .  T
C437        C438   1.205       .  T
C438        C439   1.411       .  S
C439        C440   1.205       .  T
C441        C442   1.207       .  T
C442        C443   1.414       .  S
C443        C444   1.207       .  T
C445        C446   1.207       .  T
C446        C447   1.414       .  S
C447        C448   1.207       .  T
C449        C450   1.208   1_554  T
C450        C451   1.416       .  S
C451        C452   1.208   1_556  T
C453        C454   1.204       .  T
C454        C455   1.410       .  S
C455        C456   1.205   1_655  T
C457        C458   1.205       .  T
C458        C459   1.412       .  S
C459        C460   1.205       .  T
C461        C462   1.209       .  T
C462        C463   1.418       .  S
C463        C464   1.209       .  T
C465        C466   1.209       .  T
C466        C467   1.417       .  S
C467        C468   1.209       .  T
C469        C470   1.206       .  T
C470        C471   1.413   1_545  S
C471        C472   1.206       .  T
C473        C474   1.205       .  T
C474        C475   1.411       .  S
C475        C476   1.205       .  T
C477        C478   1.205   1_655  T
C478        C479   1.412       .  S
C479        C480   1.205       .  T
C481        C482   1.209       .  T
C482        C483   1.418       .  S
C483        C484   1.209       .  T
C485        C486   1.207   1_554  T
C486        C487   1.414   1_545  S
C487        C488   1.207       .  T
C489        C490   1.209       .  T
C490        C491   1.418       .  S
C491        C492   1.209       .  T
C493        C494   1.206       .  T
C494        C495   1.413       .  S
C495        C496   1.206       .  T
C497        C498   1.207       .  T
C498        C499   1.414       .  S
C499        C500   1.207       .  T
C501        C502   1.205       .  T
C502        C503   1.411       .  S
C503        C504   1.205       .  T
C505        C506   1.205       .  T
C506        C507   1.411       .  S
C507        C508   1.205   1_455  T
C509        C510   1.210       .  T
C510        C511   1.419       .  S
C511        C512   1.210       .  T
C513        C514   1.207       .  T
C514        C515   1.414       .  S
C515        C516   1.207       .  T
C517        C518   1.207       .  T
C518        C519   1.415       .  S
C519        C520   1.207       .  T
C521        C522   1.209       .  T
C522        C523   1.418       .  S
C523        C524   1.209       .  T
C525        C526   1.206       .  T
C526        C527   1.412       .  S
C527        C528   1.206       .  T
C529        C530   1.206       .  T
C530        C531   1.413       .  S
C531        C532   1.206       .  T
C533        C534   1.207       .  T
C534        C535   1.413   1_565  S
C535        C536   1.207       .  T
C537        C538   1.205   1_455  T
C538        C539   1.411       .  S
C539        C540   1.205       .  T
C541        C542   1.205       .  T
C542        C543   1.411       .  S
C543        C544   1.205       .  T
C545        C546   1.209       .  T
C546        C547   1.417       .  S
C547        C548   1.209       .  T
C549        C550   1.206       .  T
C550        C551   1.412       .  S
C551        C552   1.206       .  T
C553        C554   1.207       .  T
C554        C555   1.413       .  S
C555        C556   1.207       .  T
C557        C558   1.206       .  T
C558        C559   1.413   1_565  S
C559        C560   1.206       .  T
