geometry optimzed in LAMMPS
_audit_creation_date              2020-12-01 
_audit_creation_method            'lammps2cif' 
_symmetry_space_group_name_H-M    'P1' 
_symmetry_Int_Tables_number       1 
_symmetry_cell_setting            triclinic 
loop_ 
_symmetry_equiv_pos_as_xyz 
  x,y,z 
_cell_length_a                    41.06191498 
_cell_length_b                    45.31149106395082 
_cell_length_c                    37.08689600967923 
_cell_angle_alpha                 90.00440230916887 
_cell_angle_beta                  90.00266779055725 
_cell_angle_gamma                 90.00186291773143 
loop_ 
_atom_site_label 
_atom_site_type_symbol 
_atom_site_fract_x 
_atom_site_fract_y 
_atom_site_fract_z 
_atom_site_charge 
O1          O  0.02212435  0.14530693  0.93612913    -0.80700
C2          C  0.09101695  0.05380577  0.86976855     0.98600
O3          O  0.06080819  0.05775829  0.86449493    -0.69800
O4          O  0.03936993  0.05967843  0.92956909    -0.73400
Al5        Al  0.03258541  0.08483874  0.89075994     1.49000
C6          C  0.03511627  0.06699787  0.96172482     0.93900
O7          O  0.10084872  0.10979485  0.96293498    -0.79600
O8          O  0.09039067  0.15632185  0.87336042    -0.73200
Al9        Al  0.06176709  0.12667128  0.94724326     1.90100
O10         O  0.12977375  0.12008032  0.91471283    -0.72300
O11         O  0.07297577  0.11237637  0.83056432    -0.72100
O12         O  0.10930489  0.07525651  0.87664945    -0.77800
O13         O  0.02270329  0.10767642  0.85010099    -0.76000
O14         O  0.06403378  0.10920857  0.90456274    -1.12100
O15         O  0.49764350  0.10560268  0.91580791    -0.71300
C16         C  0.49663689  0.13050283  0.93137357     0.99400
C17         C  0.12788564  0.11386939  0.94803485     0.95800
Al18       Al  0.09793971  0.11542423  0.87580829     1.55600
O19         O  0.03959316  0.09353491  0.97187480    -0.75900
C20         C  0.04236184  0.11335502  0.82513441     1.00000
C21         C  0.09083440  0.17300212  0.90046564     0.94900
O22         O  0.08350141  0.16322418  0.93161348    -0.81300
O23         O  0.41726193  0.35396505  0.06438344    -0.80700
C24         C  0.41044646  0.46256463  0.12789386     0.98600
O25         O  0.39206698  0.44114046  0.12113224    -0.69800
O26         O  0.37114646  0.39647671  0.08292537    -0.73400
Al27       Al  0.40356150  0.40098709  0.12128921     1.49000
C28         C  0.37245404  0.40308094  0.04968581     0.93900
O29         O  0.46025366  0.42425360  0.02454049    -0.79600
O30         O  0.00327052  0.41134781  0.07971251    -0.73200
Al31       Al  0.43860174  0.39075415  0.04896485     1.90100
O32         O  0.46139366  0.45747109  0.06756534    -0.72300
O33         O  0.47910752  0.40848305  0.14589743    -0.72100
O34         O  0.44069853  0.45855742  0.13288170    -0.77800
O35         O  0.42910073  0.40376407  0.16618911    -0.76000
O36         O  0.43703191  0.40761096  0.09203107    -1.12100
O37         O  0.41138004  0.36009139  0.12293636    -0.71300
C38         C  0.41051623  0.34376796  0.09549874     0.99400
C39         C  0.46492824  0.45063609  0.03515400     0.95800
Al40       Al  0.46866405  0.43180969  0.10574772     1.55600
O41         O  0.39920994  0.40776558  0.03444668    -0.75900
C42         C  0.45977416  0.40275247  0.17116471     1.00000
C43         C  0.00401341  0.38670008  0.06352646     0.94900
O44         O  0.47843585  0.37203164  0.05879384    -0.81300
O45         O  0.16726220  0.41249273  0.93178926    -0.80700
C46         C  0.16044116  0.30389005  0.86828453     0.98600
O47         O  0.14206349  0.32531418  0.87504462    -0.69800
O48         O  0.12114601  0.36998002  0.91324929    -0.73400
Al49       Al  0.15356078  0.36546753  0.87488562     1.49000
C50         C  0.12245425  0.36337900  0.94648985     0.93900
O51         O  0.21025606  0.34220804  0.97164127    -0.79600
O52         O  0.25326817  0.35511106  0.91646890    -0.73200
Al53       Al  0.18860255  0.37570507  0.94721157     1.90100
O54         O  0.21138958  0.30898735  0.92861997    -0.72300
O55         O  0.22910651  0.35796843  0.85028284    -0.72100
O56         O  0.19069354  0.30789625  0.86330178    -0.77800
O57         O  0.17909941  0.36268720  0.82998637    -0.76000
O58         O  0.18703031  0.35884576  0.90414705    -1.12100
O59         O  0.16138156  0.40636384  0.87323602    -0.71300
C60         C  0.16051620  0.42268821  0.90067219     0.99400
C61         C  0.21492788  0.31582531  0.96102996     0.95800
Al62       Al  0.21866129  0.33464611  0.89043469     1.55600
O63         O  0.14921044  0.35869368  0.96173063    -0.75900
C64         C  0.20977401  0.36369471  0.82501099     1.00000
C65         C  0.25401277  0.37976104  0.93264934     0.94900
O66         O  0.22843547  0.39442860  0.93738065    -0.81300
O67         O  0.27213008  0.12114336  0.06003073    -0.80700
C68         C  0.34102999  0.21264268  0.12639816     0.98600
O69         O  0.31082291  0.20868693  0.13167449    -0.69800
O70         O  0.28937781  0.20677358  0.06660069    -0.73400
Al71       Al  0.28259651  0.18160804  0.10540571     1.49000
C72         C  0.28511901  0.19945614  0.03444401     0.93900
O73         O  0.35085133  0.15666158  0.03322384    -0.79600
O74         O  0.34040514  0.11012820  0.12279471    -0.73200
Al75       Al  0.31177114  0.13978249  0.04891628     1.90100
O76         O  0.37978222  0.14637447  0.08144261    -0.72300
O77         O  0.32299410  0.15406856  0.16559606    -0.72100
O78         O  0.35931811  0.19119417  0.11951233    -0.77800
O79         O  0.27272012  0.15876485  0.14606002    -0.76000
O80         O  0.31404443  0.15724111  0.09159748    -1.12100
O81         O  0.24765227  0.16084585  0.08035473    -0.71300
C82         C  0.24664331  0.13594654  0.06478640     0.99400
C83         C  0.37788980  0.15258690  0.04812183     0.95800
Al84       Al  0.34795329  0.15102622  0.12035025     1.55600
O85         O  0.28959421  0.17292096  0.02428967    -0.75900
C86         C  0.29238152  0.15308619  0.17102411     1.00000
C87         C  0.34084516  0.09344898  0.09568798     0.94900
O88         O  0.33350773  0.10322827  0.06454116    -0.81300
O89         O  0.48044235  0.14530589  0.56000858    -0.80700
C90         C  0.41156343  0.05380983  0.62638702     0.98600
O91         O  0.44177171  0.05776780  0.63165703    -0.69800
O92         O  0.46320408  0.05967661  0.56657973    -0.73400
Al93       Al  0.46999079  0.08484598  0.60538543     1.49000
C94         C  0.46745639  0.06699058  0.53442324     0.93900
O95         O  0.40171774  0.10977936  0.53321420    -0.79600
O96         O  0.41218228  0.15632296  0.62278596    -0.73200
Al97       Al  0.44080032  0.12666363  0.54890131     1.90100
O98         O  0.37279739  0.12007332  0.58143815    -0.72300
O99         O  0.42960167  0.11238469  0.66558254    -0.72100
O100        O  0.39327264  0.07525584  0.61950158    -0.77800
O101        O  0.47987340  0.10769344  0.64604076    -0.76000
O102        O  0.43853836  0.10920845  0.59158214    -1.12100
O103        O  0.00492834  0.10560870  0.58032923    -0.71300
C104        C  0.00593126  0.13050464  0.56475974     0.99400
C105        C  0.37468208  0.11385850  0.54811568     0.95800
Al106      Al  0.40463463  0.11542468  0.62034016     1.55600
O107        O  0.46297483  0.09352437  0.52427030    -0.75900
C108        C  0.46021585  0.11336773  0.67100934     1.00000
C109        C  0.41173473  0.17299885  0.59567888     0.94900
O110        O  0.41906485  0.16321650  0.56453052    -0.81300
O111        O  0.08531787  0.35394898  0.43178719    -0.80700
C112        C  0.09214474  0.46253770  0.36826780     0.98600
O113        O  0.11052233  0.44111495  0.37503413    -0.69800
O114        O  0.13143900  0.39645466  0.41324264    -0.73400
Al115      Al  0.09902269  0.40096239  0.37487912     1.49000
C116        C  0.13013432  0.40306275  0.44648076     0.93900
O117        O  0.04233854  0.42424719  0.47162934    -0.79600
O118        O  0.49931720  0.41133552  0.41646243    -0.73200
Al119      Al  0.06398412  0.39074200  0.44720601     1.90100
O120        O  0.04120264  0.45745753  0.42860225    -0.72300
O121        O  0.02347622  0.40845598  0.35027588    -0.72100
O122        O  0.06189211  0.45852983  0.36328285    -0.77800
O123        O  0.07348178  0.40373543  0.32998052    -0.76000
O124        O  0.06555517  0.40759140  0.40413907    -1.12100
O125        O  0.09119788  0.36006693  0.37323403    -0.71300
C126        C  0.09206075  0.34374770  0.40067118     0.99400
C127        C  0.03766727  0.45062744  0.46101381     0.95800
Al128      Al  0.03392467  0.43178960  0.39042260     1.55600
O129        O  0.10337918  0.40775289  0.46172170    -0.75900
C130        C  0.04280757  0.40272577  0.32500513     1.00000
C131        C  0.49857042  0.38668984  0.43265085     0.94900
O132        O  0.02414677  0.37202070  0.43738063    -0.81300
O133        O  0.33531873  0.41248485  0.56439449    -0.80700
C134        C  0.34213459  0.30388538  0.62788269     0.98600
O135        O  0.36051377  0.32530957  0.62112562    -0.69800
O136        O  0.38143328  0.36997572  0.58292832    -0.73400
Al137      Al  0.34901885  0.36546277  0.62129154     1.49000
C138        C  0.38012544  0.36337414  0.54968497     0.93900
O139        O  0.29232060  0.34220100  0.52453374    -0.79600
O140        O  0.24930994  0.35510395  0.57970798    -0.73200
Al141      Al  0.31397674  0.37569768  0.54896720     1.90100
O142        O  0.29118565  0.30898106  0.56754955    -0.72300
O143        O  0.27347338  0.35796417  0.64589485    -0.72100
O144        O  0.31188264  0.30789198  0.63286787    -0.77800
O145        O  0.32348071  0.36268293  0.66619056    -0.76000
O146        O  0.31554858  0.35883991  0.59202975    -1.12100
O147        O  0.34119978  0.40635869  0.62294691    -0.71300
C148        C  0.34206551  0.42268272  0.59551239     0.99400
C149        C  0.28764535  0.31581797  0.53514164     0.95800
Al150      Al  0.28391593  0.33464036  0.60573903     1.55600
O151        O  0.35336848  0.35868650  0.53444605    -0.75900
C152        C  0.29280684  0.36369091  0.67116735     1.00000
C153        C  0.24856688  0.37975260  0.56352904     0.94900
O154        O  0.27414477  0.39442097  0.55880141    -0.81300
O155        O  0.23043547  0.12114618  0.43612191    -0.80700
C156        C  0.16154462  0.21262797  0.36973765     0.98600
O157        O  0.19175256  0.20867662  0.36446818    -0.69800
O158        O  0.21318190  0.20677245  0.42954749    -0.73400
Al159      Al  0.21997477  0.18160416  0.39074359     1.49000
C160        C  0.21743316  0.19945892  0.46170546     0.93900
O161        O  0.15170424  0.15665822  0.46290200    -0.79600
O162        O  0.16217903  0.11011385  0.37333504    -0.73200
Al163      Al  0.19078952  0.13978087  0.44722291     1.90100
O164        O  0.12278637  0.14635879  0.41467466    -0.72300
O165        O  0.17959616  0.15405308  0.33053937    -0.72100
O166        O  0.14325604  0.19117753  0.37661345    -0.77800
O167        O  0.22986490  0.15875938  0.35009038    -0.76000
O168        O  0.18852736  0.15723504  0.40454060    -1.12100
O169        O  0.25491539  0.16084844  0.41580360    -0.71300
C170        C  0.25592320  0.13595087  0.43137144     0.99400
C171        C  0.12467016  0.15257674  0.44799584     0.95800
Al172      Al  0.15462514  0.15101077  0.37577715     1.55600
O173        O  0.21295740  0.17292446  0.47185658    -0.75900
C174        C  0.21020905  0.15307624  0.32511971     1.00000
C175        C  0.16173354  0.09343840  0.40044226     0.94900
O176        O  0.16906118  0.10322377  0.43159151    -0.81300
C177        C  0.27488515  0.29300263  0.51222465    -0.17400
C178        C  0.26133870  0.27072915  0.50229656     0.06600
C179        C  0.24460332  0.24401740  0.49475935     0.08500
C180        C  0.23079614  0.22190025  0.48475456    -0.18300
C181        C  0.40864116  0.36357254  0.52726078    -0.17400
C182        C  0.42849864  0.36602171  0.50345215     0.06600
C183        C  0.44982601  0.37116915  0.47412992     0.08500
C184        C  0.46981811  0.37738205  0.45151572    -0.18300
C185        C  0.15865193  0.40287145  0.46890753    -0.17400
C186        C  0.17850526  0.40042755  0.49271834     0.06600
C187        C  0.19982771  0.39528194  0.52204960     0.08500
C188        C  0.21981434  0.38906732  0.54466529    -0.18300
C189        C  0.10595039  0.49181785  0.36949974    -0.17400
C190        C  0.11990576  0.01471063  0.37639590     0.06600
C191        C  0.13679946  0.04067668  0.38714748     0.08500
C192        C  0.14994951  0.06367977  0.39535518    -0.18300
C193        C  0.14767933  0.24187223  0.37098940    -0.17400
C194        C  0.13370823  0.26478081  0.37770780     0.06600
C195        C  0.11683034  0.29082927  0.38812065     0.08500
C196        C  0.10373547  0.31392624  0.39598137    -0.18300
C197        C  0.35374590  0.45249980  0.60020496    -0.17400
C198        C  0.36684714  0.47560069  0.60805715     0.06600
C199        C  0.38372786  0.50165014  0.61845066     0.08500
C200        C  0.39770162  0.02456424  0.62515205    -0.18300
C201        C  0.35593884  0.27460481  0.62663960    -0.17400
C202        C  0.36989355  0.25171644  0.61973638     0.06600
C203        C  0.38679103  0.22575381  0.60897771     0.08500
C204        C  0.39994459  0.20275539  0.60076715    -0.18300
C205        C  0.48082666  0.04455318  0.51137690    -0.17400
C206        C  0.49463812  0.02243785  0.50137672     0.06600
C207        C  0.01137425  0.49572555  0.49384600     0.08500
C208        C  0.02491591  0.47345072  0.48392418    -0.18300
C209        C  0.28489295  0.12655421  0.44973571    -0.17400
C210        C  0.30512920  0.12049055  0.47212991     0.06600
C211        C  0.32661773  0.11570928  0.50139096     0.08500
C212        C  0.34642362  0.11364557  0.52529894    -0.18300
C213        C  0.09640979  0.15279280  0.47080942    -0.17400
C214        C  0.07660870  0.15073547  0.49471846     0.06600
C215        C  0.05512642  0.14596166  0.52398783     0.08500
C216        C  0.03489787  0.13990250  0.54638767    -0.18300
C217        C  0.27867625  0.14704571  0.20613713    -0.17400
C218        C  0.26202017  0.14463673  0.23299551     0.06600
C219        C  0.24058300  0.14463370  0.26315258     0.08500
C220        C  0.22392407  0.14703820  0.29000906    -0.18300
C221        C  0.27870000  0.36973956  0.70612654    -0.17400
C222        C  0.26198875  0.37211771  0.73297257     0.06600
C223        C  0.24059412  0.37211874  0.76320719     0.08500
C224        C  0.22388178  0.36974215  0.79005303    -0.18300
C225        C  0.27175023  0.22189593  0.01139929    -0.17400
C226        C  0.25794558  0.24401373  0.00140026     0.06600
C227        C  0.24121773  0.27073004  0.99386832     0.08500
C228        C  0.22768045  0.29300610  0.98394453    -0.18300
C229        C  0.47388094  0.39669289  0.20612102    -0.17400
C230        C  0.49059140  0.39430567  0.23296558     0.06600
C231        C  0.01198636  0.39429776  0.26320062     0.08500
C232        C  0.02869928  0.39667362  0.29004845    -0.18300
C233        C  0.03276690  0.37738606  0.04466297    -0.17400
C234        C  0.05275564  0.37117038  0.02205080     0.06600
C235        C  0.07408256  0.36602142  0.99272381     0.08500
C236        C  0.09393693  0.36357407  0.96891605    -0.18300
C237        C  0.34393669  0.40289052  0.02726041    -0.17400
C238        C  0.32408186  0.40044586  0.00345032     0.06600
C239        C  0.30275635  0.39529734  0.97412144     0.08500
C240        C  0.28276708  0.38907937  0.95150892    -0.18300
C241        C  0.35263406  0.06369251  0.10077448    -0.17400
C242        C  0.36578822  0.04069396  0.10898686     0.06600
C243        C  0.38268600  0.01473373  0.11974737     0.08500
C244        C  0.39664226  0.49184533  0.12665194    -0.18300
C245        C  0.39883887  0.31394815  0.10018741    -0.17400
C246        C  0.38574196  0.29084880  0.10804230     0.06600
C247        C  0.36886442  0.26479963  0.11844444     0.08500
C248        C  0.35489271  0.24188741  0.12515437    -0.18300
C249        C  0.02865612  0.11939091  0.79002286    -0.17400
C250        C  0.01200263  0.12179873  0.76315521     0.06600
C251        C  0.49057634  0.12180280  0.73299121     0.08500
C252        C  0.47392316  0.11940094  0.70612394    -0.18300
C253        C  0.02175150  0.04456194  0.98477455    -0.17400
C254        C  0.00794621  0.02244461  0.99477922     0.06600
C255        C  0.49121737  0.49573115  0.00231518     0.08500
C256        C  0.47767861  0.47345469  0.01224179    -0.18300
C257        C  0.14663448  0.27461012  0.86952037    -0.17400
C258        C  0.13267666  0.25172045  0.87641797     0.06600
C259        C  0.11577766  0.22575847  0.88717038     0.08500
C260        C  0.10262315  0.20275890  0.89537828    -0.18300
C261        C  0.10488126  0.02456223  0.87101409    -0.17400
C262        C  0.11885515  0.50165184  0.87772401     0.06600
C263        C  0.13573614  0.47560414  0.88812578     0.08500
C264        C  0.14883583  0.45250679  0.89598135    -0.18300
C265        C  0.21767192  0.12654784  0.04642380    -0.17400
C266        C  0.19743509  0.12048647  0.02402709     0.06600
C267        C  0.17594825  0.11571119  0.99476337     0.08500
C268        C  0.15614304  0.11365285  0.97085259    -0.18300
C269        C  0.40614465  0.15280396  0.02530079    -0.17400
C270        C  0.42594525  0.15074480  0.00139120     0.06600
C271        C  0.44743118  0.14596667  0.97212649     0.08500
C272        C  0.46766582  0.13990313  0.94973317    -0.18300
O273        O  0.02212447  0.64530702  0.93612935    -0.80700
C274        C  0.09101695  0.55380568  0.86976855     0.98600
O275        O  0.06080847  0.55775821  0.86449497    -0.69800
O276        O  0.03937015  0.55967812  0.92956882    -0.73400
Al277      Al  0.03258502  0.58483895  0.89076000     1.49000
C278        C  0.03511602  0.56699767  0.96172550     0.93900
O279        O  0.10084915  0.60979472  0.96293488    -0.79600
O280        O  0.09039068  0.65632185  0.87336036    -0.73200
Al281      Al  0.06176709  0.62667127  0.94724292     1.90100
O282        O  0.12977402  0.62008047  0.91471269    -0.72300
O283        O  0.07297548  0.61237648  0.83056419    -0.72100
O284        O  0.10930495  0.57525668  0.87664948    -0.77800
O285        O  0.02270341  0.60767630  0.85010077    -0.76000
O286        O  0.06403401  0.60920855  0.90456325    -1.12100
O287        O  0.49764395  0.60560239  0.91580794    -0.71300
C288        C  0.49663604  0.63050296  0.93137395     0.99400
C289        C  0.12788523  0.61386926  0.94803482     0.95800
Al290      Al  0.09793970  0.61542411  0.87580810     1.55600
O291        O  0.03959313  0.59353466  0.97187466    -0.75900
C292        C  0.04236241  0.61335491  0.82513522     1.00000
C293        C  0.09083427  0.67300203  0.90046587     0.94900
O294        O  0.08350127  0.66322427  0.93161361    -0.81300
O295        O  0.41726193  0.85396511  0.06438340    -0.80700
C296        C  0.41044656  0.96256450  0.12789392     0.98600
O297        O  0.39206680  0.94114034  0.12113240    -0.69800
O298        O  0.37114654  0.89647672  0.08292507    -0.73400
Al299      Al  0.40356186  0.90098730  0.12128933     1.49000
C300        C  0.37245340  0.90308098  0.04968584     0.93900
O301        O  0.46025371  0.92425348  0.02454041    -0.79600
O302        O  0.00327042  0.91134802  0.07971270    -0.73200
Al303      Al  0.43860161  0.89075448  0.04896475     1.90100
O304        O  0.46139361  0.95747116  0.06756546    -0.72300
O305        O  0.47910781  0.90848311  0.14589708    -0.72100
O306        O  0.44069839  0.95855752  0.13288163    -0.77800
O307        O  0.42910038  0.90376409  0.16618906    -0.76000
O308        O  0.43703134  0.90761048  0.09203103    -1.12100
O309        O  0.41137993  0.86009135  0.12293639    -0.71300
C310        C  0.41051604  0.84376764  0.09549884     0.99400
C311        C  0.46492802  0.95063559  0.03515408     0.95800
Al312      Al  0.46866426  0.93180983  0.10574776     1.55600
O313        O  0.39921033  0.90776556  0.03444664    -0.75900
C314        C  0.45977428  0.90275238  0.17116526     1.00000
C315        C  0.00401376  0.88669988  0.06352614     0.94900
O316        O  0.47843572  0.87203160  0.05879396    -0.81300
O317        O  0.16726213  0.91249259  0.93178918    -0.80700
C318        C  0.16044115  0.80389005  0.86828448     0.98600
O319        O  0.14206343  0.82531429  0.87504467    -0.69800
O320        O  0.12114601  0.86998016  0.91324902    -0.73400
Al321      Al  0.15356064  0.86546746  0.87488555     1.49000
C322        C  0.12245373  0.86337892  0.94649020     0.93900
O323        O  0.21025594  0.84220782  0.97164121    -0.79600
O324        O  0.25326806  0.85511066  0.91646877    -0.73200
Al325      Al  0.18860244  0.87570513  0.94721171     1.90100
O326        O  0.21138956  0.80898758  0.92862024    -0.72300
O327        O  0.22910613  0.85796858  0.85028241    -0.72100
O328        O  0.19069353  0.80789624  0.86330175    -0.77800
O329        O  0.17909962  0.86268738  0.82998620    -0.76000
O330        O  0.18703036  0.85884578  0.90414698    -1.12100
O331        O  0.16138163  0.90636380  0.87323612    -0.71300
C332        C  0.16051606  0.92268847  0.90067229     0.99400
C333        C  0.21492787  0.81582508  0.96103002     0.95800
Al334      Al  0.21866118  0.83464600  0.89043475     1.55600
O335        O  0.14921045  0.85869364  0.96173044    -0.75900
C336        C  0.20977379  0.86369465  0.82501169     1.00000
C337        C  0.25401310  0.87976155  0.93264986     0.94900
O338        O  0.22843531  0.89442843  0.93738053    -0.81300
O339        O  0.27212986  0.62114362  0.06003067    -0.80700
C340        C  0.34103039  0.71264280  0.12639816     0.98600
O341        O  0.31082267  0.70868680  0.13167451    -0.69800
O342        O  0.28937773  0.70677321  0.06660038    -0.73400
Al343      Al  0.28259657  0.68160824  0.10540584     1.49000
C344        C  0.28511882  0.69945657  0.03444404     0.93900
O345        O  0.35085119  0.65666168  0.03322396    -0.79600
O346        O  0.34040518  0.61012829  0.12279493    -0.73200
Al347      Al  0.31177120  0.63978198  0.04891628     1.90100
O348        O  0.37978207  0.64637441  0.08144299    -0.72300
O349        O  0.32299397  0.65406864  0.16559607    -0.72100
O350        O  0.35931754  0.69119450  0.11951244    -0.77800
O351        O  0.27272009  0.65876479  0.14606008    -0.76000
O352        O  0.31404429  0.65724147  0.09159744    -1.12100
O353        O  0.24765224  0.66084568  0.08035458    -0.71300
C354        C  0.24664353  0.63594659  0.06478652     0.99400
C355        C  0.37789043  0.65258698  0.04812079     0.95800
Al356      Al  0.34795337  0.65102596  0.12035015     1.55600
O357        O  0.28959405  0.67292127  0.02428980    -0.75900
C358        C  0.29238163  0.65308622  0.17102379     1.00000
C359        C  0.34084498  0.59344913  0.09568778     0.94900
O360        O  0.33350757  0.60322834  0.06454104    -0.81300
O361        O  0.48044267  0.64530582  0.56000867    -0.80700
C362        C  0.41156285  0.55380917  0.62638694     0.98600
O363        O  0.44177197  0.55776785  0.63165704    -0.69800
O364        O  0.46320402  0.55967629  0.56658009    -0.73400
Al365      Al  0.46999087  0.58484606  0.60538545     1.49000
C366        C  0.46745647  0.56699075  0.53442307     0.93900
O367        O  0.40171806  0.60977948  0.53321406    -0.79600
O368        O  0.41218234  0.65632281  0.62278601    -0.73200
Al369      Al  0.44080011  0.62666319  0.54890139     1.90100
O370        O  0.37279740  0.62007340  0.58143811    -0.72300
O371        O  0.42960217  0.61238469  0.66558228    -0.72100
O372        O  0.39327288  0.57525581  0.61950157    -0.77800
O373        O  0.47987376  0.60769327  0.64604044    -0.76000
O374        O  0.43853865  0.60920867  0.59158175    -1.12100
O375        O  0.00492835  0.60560818  0.58032945    -0.71300
C376        C  0.00593147  0.63050498  0.56475937     0.99400
C377        C  0.37468190  0.61385844  0.54811558     0.95800
Al378      Al  0.40463449  0.61542470  0.62034034     1.55600
O379        O  0.46297502  0.59352460  0.52427017    -0.75900
C380        C  0.46021539  0.61336782  0.67100981     1.00000
C381        C  0.41173481  0.67299898  0.59567877     0.94900
O382        O  0.41906501  0.66321666  0.56453060    -0.81300
O383        O  0.08531776  0.85394901  0.43178736    -0.80700
C384        C  0.09214456  0.96253774  0.36826776     0.98600
O385        O  0.11052271  0.94111494  0.37503434    -0.69800
O386        O  0.13143946  0.89645452  0.41324221    -0.73400
Al387      Al  0.09902275  0.90096232  0.37487892     1.49000
C388        C  0.13013351  0.90306302  0.44648136     0.93900
O389        O  0.04233844  0.92424721  0.47162935    -0.79600
O390        O  0.49931727  0.91133499  0.41646287    -0.73200
Al391      Al  0.06398449  0.89074216  0.44720588     1.90100
O392        O  0.04120264  0.95745757  0.42860234    -0.72300
O393        O  0.02347648  0.90845591  0.35027550    -0.72100
O394        O  0.06189176  0.95853009  0.36328277    -0.77800
O395        O  0.07348173  0.90373546  0.32998051    -0.76000
O396        O  0.06555460  0.90759146  0.40413934    -1.12100
O397        O  0.09119787  0.86006714  0.37323404    -0.71300
C398        C  0.09206102  0.84374706  0.40067088     0.99400
C399        C  0.03766724  0.95062745  0.46101368     0.95800
Al400      Al  0.03392504  0.93178951  0.39042253     1.55600
O401        O  0.10337968  0.90775260  0.46172129    -0.75900
C402        C  0.04280744  0.90272589  0.32500562     1.00000
C403        C  0.49857094  0.88669084  0.43265018     0.94900
O404        O  0.02414661  0.87202027  0.43738083    -0.81300
O405        O  0.33531891  0.91248520  0.56439469    -0.80700
C406        C  0.34213481  0.80388538  0.62788254     0.98600
O407        O  0.36051377  0.82530975  0.62112567    -0.69800
O408        O  0.38143343  0.86997572  0.58292802    -0.73400
Al409      Al  0.34901898  0.86546271  0.62129141     1.49000
C410        C  0.38012461  0.86337437  0.54968627     0.93900
O411        O  0.29232059  0.84220056  0.52453380    -0.79600
O412        O  0.24930967  0.85510421  0.57970783    -0.73200
Al413      Al  0.31397681  0.87569754  0.54896734     1.90100
O414        O  0.29118550  0.80898066  0.56754970    -0.72300
O415        O  0.27347360  0.85796422  0.64589522    -0.72100
O416        O  0.31188222  0.80789197  0.63286793    -0.77800
O417        O  0.32348091  0.86268305  0.66619084    -0.76000
O418        O  0.31554816  0.85883982  0.59202986    -1.12100
O419        O  0.34119985  0.90635911  0.62294697    -0.71300
C420        C  0.34206519  0.92268182  0.59551218     0.99400
C421        C  0.28764562  0.81581895  0.53514166     0.95800
Al422      Al  0.28391623  0.83464051  0.60573891     1.55600
O423        O  0.35336842  0.85868634  0.53444535    -0.75900
C424        C  0.29280674  0.86369081  0.67116665     1.00000
C425        C  0.24856720  0.87975234  0.56352939     0.94900
O426        O  0.27414486  0.89442132  0.55880124    -0.81300
O427        O  0.23043549  0.62114608  0.43612193    -0.80700
C428        C  0.16154359  0.71262865  0.36973767     0.98600
O429        O  0.19175270  0.70867651  0.36446813    -0.69800
O430        O  0.21318173  0.70677233  0.42954784    -0.73400
Al431      Al  0.21997520  0.68160434  0.39074355     1.49000
C432        C  0.21743301  0.69945890  0.46170494     0.93900
O433        O  0.15170401  0.65665813  0.46290161    -0.79600
O434        O  0.16217909  0.61011361  0.37333512    -0.73200
Al435      Al  0.19078965  0.63978111  0.44722292     1.90100
O436        O  0.12278633  0.64635870  0.41467439    -0.72300
O437        O  0.17959572  0.65405296  0.33053922    -0.72100
O438        O  0.14325647  0.69117744  0.37661317    -0.77800
O439        O  0.22986431  0.65875939  0.35009019    -0.76000
O440        O  0.18852665  0.65723459  0.40454066    -1.12100
O441        O  0.25491535  0.66084852  0.41580365    -0.71300
C442        C  0.25592315  0.63595096  0.43137153     0.99400
C443        C  0.12467003  0.65257696  0.44799652     0.95800
Al444      Al  0.15462522  0.65101108  0.37577723     1.55600
O445        O  0.21295740  0.67292418  0.47185684    -0.75900
C446        C  0.21020962  0.65307630  0.32512008     1.00000
C447        C  0.16173355  0.59343853  0.40044237     0.94900
O448        O  0.16906117  0.60322364  0.43159140    -0.81300
C449        C  0.27488469  0.79300178  0.51222427    -0.17400
C450        C  0.26133913  0.77072984  0.50229677     0.06600
C451        C  0.24460299  0.74401692  0.49475910     0.08500
C452        C  0.23079636  0.72190062  0.48475488    -0.18300
C453        C  0.40864196  0.86357256  0.52725983    -0.17400
C454        C  0.42849811  0.86602152  0.50345310     0.06600
C455        C  0.44982687  0.87116948  0.47412885     0.08500
C456        C  0.46981717  0.87738152  0.45151692    -0.18300
C457        C  0.15865256  0.90287140  0.46890763    -0.17400
C458        C  0.17850470  0.90042758  0.49271786     0.06600
C459        C  0.19982826  0.89528178  0.52205012     0.08500
C460        C  0.21981401  0.88906766  0.54466482    -0.18300
C461        C  0.10595065  0.99181803  0.36949976    -0.17400
C462        C  0.11990576  0.51471070  0.37639591     0.06600
C463        C  0.13679921  0.54067642  0.38714738     0.08500
C464        C  0.14994947  0.56367988  0.39535530    -0.18300
C465        C  0.14767974  0.74187194  0.37098925    -0.17400
C466        C  0.13370804  0.76478105  0.37770791     0.06600
C467        C  0.11683054  0.79082880  0.38812050     0.08500
C468        C  0.10373510  0.81392697  0.39598161    -0.18300
C469        C  0.35374644  0.95250113  0.60020538    -0.17400
C470        C  0.36684645  0.97559944  0.60805678     0.06600
C471        C  0.38372864  0.00165127  0.61845103     0.08500
C472        C  0.39770230  0.52456500  0.62515230    -0.18300
C473        C  0.35593816  0.77460586  0.62663985    -0.17400
C474        C  0.36989445  0.75171512  0.61973592     0.06600
C475        C  0.38679055  0.72575479  0.60897813     0.08500
C476        C  0.39994502  0.70275485  0.60076703    -0.18300
C477        C  0.48082666  0.54455298  0.51137686    -0.17400
C478        C  0.49463810  0.52243760  0.50137660     0.06600
C479        C  0.01137399  0.99572606  0.49384632     0.08500
C480        C  0.02491626  0.97345013  0.48392373    -0.18300
C481        C  0.28489240  0.62655433  0.44973537    -0.17400
C482        C  0.30512977  0.62049042  0.47213062     0.06600
C483        C  0.32661747  0.61570938  0.50139051     0.08500
C484        C  0.34642379  0.61364551  0.52529914    -0.18300
C485        C  0.09641004  0.65279288  0.47080881    -0.17400
C486        C  0.07660823  0.65073542  0.49471904     0.06600
C487        C  0.05512672  0.64596175  0.52398741     0.08500
C488        C  0.03489765  0.63990239  0.54638796    -0.18300
C489        C  0.27867617  0.64704556  0.20613715    -0.17400
C490        C  0.26202023  0.64463664  0.23299547     0.06600
C491        C  0.24058308  0.64463360  0.26315260     0.08500
C492        C  0.22392377  0.64703811  0.29000923    -0.18300
C493        C  0.27869990  0.86973970  0.70612705    -0.17400
C494        C  0.26198912  0.87211766  0.73297203     0.06600
C495        C  0.24059375  0.87211868  0.76320777     0.08500
C496        C  0.22388204  0.86974226  0.79005245    -0.18300
C497        C  0.27175054  0.72189535  0.01139960    -0.17400
C498        C  0.25794536  0.74401417  0.00140012     0.06600
C499        C  0.24121795  0.77072958  0.99386853     0.08500
C500        C  0.22768014  0.79300655  0.98394427    -0.18300
C501        C  0.47388070  0.89669291  0.20612040    -0.17400
C502        C  0.49059197  0.89430565  0.23296624     0.06600
C503        C  0.01198674  0.89429785  0.26320110     0.08500
C504        C  0.02869930  0.89667364  0.29004811    -0.18300
C505        C  0.03276638  0.87738613  0.04466332    -0.17400
C506        C  0.05275599  0.87117014  0.02205016     0.06600
C507        C  0.07408189  0.86602138  0.99272458     0.08500
C508        C  0.09393730  0.86357393  0.96891539    -0.18300
C509        C  0.34393694  0.90289062  0.02726068    -0.17400
C510        C  0.32408133  0.90044578  0.00344988     0.06600
C511        C  0.30275680  0.89529752  0.97412239     0.08500
C512        C  0.28276650  0.88907906  0.95150847    -0.18300
C513        C  0.35263426  0.56369209  0.10077461    -0.17400
C514        C  0.36578820  0.54069401  0.10898683     0.06600
C515        C  0.38268606  0.51473359  0.11974739     0.08500
C516        C  0.39664232  0.99184503  0.12665199    -0.18300
C517        C  0.39883874  0.81394798  0.10018747    -0.17400
C518        C  0.38574194  0.79084897  0.10804225     0.06600
C519        C  0.36886425  0.76479948  0.11844450     0.08500
C520        C  0.35489263  0.74188763  0.12515433    -0.18300
C521        C  0.02865556  0.61939103  0.79002192    -0.17400
C522        C  0.01200303  0.62179867  0.76315580     0.06600
C523        C  0.49057650  0.62180278  0.73299147     0.08500
C524        C  0.47392340  0.61940097  0.70612386    -0.18300
C525        C  0.02175170  0.54456220  0.98477415    -0.17400
C526        C  0.00794611  0.52244458  0.99477928     0.06600
C527        C  0.49121725  0.99573100  0.00231533     0.08500
C528        C  0.47767888  0.97345528  0.01224145    -0.18300
C529        C  0.14663419  0.77460990  0.86952035    -0.17400
C530        C  0.13267668  0.75172074  0.87641791     0.06600
C531        C  0.11577747  0.72575824  0.88717053     0.08500
C532        C  0.10262329  0.70275916  0.89537807    -0.18300
C533        C  0.10488136  0.52456189  0.87101415    -0.17400
C534        C  0.11885526  0.00165155  0.87772409     0.06600
C535        C  0.13573603  0.97560430  0.88812582     0.08500
C536        C  0.14883598  0.95250641  0.89598140    -0.18300
C537        C  0.21767143  0.62654780  0.04642335    -0.17400
C538        C  0.19743568  0.62048655  0.02402785     0.06600
C539        C  0.17594746  0.61571105  0.99476246     0.08500
C540        C  0.15614386  0.61365290  0.97085305    -0.18300
C541        C  0.40614328  0.65280401  0.02530238    -0.17400
C542        C  0.42594662  0.65074449  0.00138953     0.06600
C543        C  0.44743011  0.64596695  0.97212782     0.08500
C544        C  0.46766688  0.63990295  0.94973238    -0.18300
O545        O  0.52212428  0.14530688  0.93612918    -0.80700
C546        C  0.59101662  0.05380533  0.86976847     0.98600
O547        O  0.56080862  0.05775844  0.86449504    -0.69800
O548        O  0.53936998  0.05967839  0.92956900    -0.73400
Al549      Al  0.53258501  0.08483867  0.89076004     1.49000
C550        C  0.53511624  0.06699789  0.96172487     0.93900
O551        O  0.60084905  0.10979484  0.96293480    -0.79600
O552        O  0.59039052  0.15632172  0.87336032    -0.73200
Al553      Al  0.56176692  0.12667121  0.94724327     1.90100
O554        O  0.62977363  0.12008035  0.91471277    -0.72300
O555        O  0.57297526  0.11237635  0.83056417    -0.72100
O556        O  0.60930507  0.07525666  0.87664947    -0.77800
O557        O  0.52270374  0.10767653  0.85010058    -0.76000
O558        O  0.56403398  0.10920871  0.90456278    -1.12100
O559        O  0.99764349  0.10560267  0.91580797    -0.71300
C560        C  0.99663680  0.13050278  0.93137361     0.99400
C561        C  0.62788523  0.11386935  0.94803467     0.95800
Al562      Al  0.59793986  0.11542424  0.87580840     1.55600
O563        O  0.53959313  0.09353491  0.97187487    -0.75900
C564        C  0.54236197  0.11335488  0.82513515     1.00000
C565        C  0.59083439  0.17300240  0.90046556     0.94900
O566        O  0.58350127  0.16322409  0.93161358    -0.81300
O567        O  0.91726191  0.35396493  0.06438359    -0.80700
C568        C  0.91044649  0.46256462  0.12789386     0.98600
O569        O  0.89206695  0.44114049  0.12113221    -0.69800
O570        O  0.87114636  0.39647677  0.08292505    -0.73400
Al571      Al  0.90356162  0.40098710  0.12128922     1.49000
C572        C  0.87245467  0.40308084  0.04968670     0.93900
O573        O  0.96025362  0.42425350  0.02454047    -0.79600
O574        O  0.50327052  0.41134755  0.07971238    -0.73200
Al575      Al  0.93860179  0.39075417  0.04896485     1.90100
O576        O  0.96139373  0.45747103  0.06756536    -0.72300
O577        O  0.97910755  0.40848313  0.14589718    -0.72100
O578        O  0.94069857  0.45855742  0.13288174    -0.77800
O579        O  0.92910046  0.40376408  0.16618891    -0.76000
O580        O  0.93703187  0.40761096  0.09203113    -1.12100
O581        O  0.91138001  0.36009130  0.12293639    -0.71300
C582        C  0.91051638  0.34376832  0.09549854     0.99400
C583        C  0.96492828  0.45063633  0.03515388     0.95800
Al584      Al  0.96866405  0.43180966  0.10574771     1.55600
O585        O  0.89921001  0.40776559  0.03444639    -0.75900
C586        C  0.95977460  0.40275233  0.17116545     1.00000
C587        C  0.50401287  0.38670042  0.06352689     0.94900
O588        O  0.97843571  0.37203167  0.05879393    -0.81300
O589        O  0.66726219  0.41249274  0.93178927    -0.80700
C590        C  0.66044114  0.30388978  0.86828453     0.98600
O591        O  0.64206321  0.32531440  0.87504468    -0.69800
O592        O  0.62114583  0.36998005  0.91324959    -0.73400
Al593      Al  0.65356076  0.36546750  0.87488564     1.49000
C594        C  0.62245492  0.36337910  0.94648922     0.93900
O595        O  0.71025621  0.34220799  0.97164127    -0.79600
O596        O  0.75326808  0.35511129  0.91646904    -0.73200
Al597      Al  0.68860245  0.37570506  0.94721154     1.90100
O598        O  0.71138945  0.30898730  0.92861996    -0.72300
O599        O  0.72910638  0.35796845  0.85028264    -0.72100
O600        O  0.69069355  0.30789633  0.86330180    -0.77800
O601        O  0.67910005  0.36268719  0.82998637    -0.76000
O602        O  0.68703012  0.35884591  0.90414711    -1.12100
O603        O  0.66138157  0.40636389  0.87323602    -0.71300
C604        C  0.66051633  0.42268799  0.90067226     0.99400
C605        C  0.71492788  0.31582532  0.96102996     0.95800
Al606      Al  0.71866148  0.33464603  0.89043475     1.55600
O607        O  0.64921025  0.35869369  0.96173073    -0.75900
C608        C  0.70977344  0.36369463  0.82501131     1.00000
C609        C  0.75401224  0.37976056  0.93264884     0.94900
O610        O  0.72843561  0.39442865  0.93738072    -0.81300
O611        O  0.77212972  0.12114353  0.06003078    -0.80700
C612        C  0.84102971  0.21264236  0.12639812     0.98600
O613        O  0.81082286  0.20868702  0.13167448    -0.69800
O614        O  0.78937770  0.20677357  0.06660074    -0.73400
Al615      Al  0.78259678  0.18160795  0.10540572     1.49000
C616        C  0.78511892  0.19945620  0.03444399     0.93900
O617        O  0.85085116  0.15666153  0.03322366    -0.79600
O618        O  0.84040496  0.11012829  0.12279476    -0.73200
Al619      Al  0.81177149  0.13978242  0.04891637     1.90100
O620        O  0.87978230  0.14637443  0.08144276    -0.72300
O621        O  0.82299392  0.15406858  0.16559604    -0.72100
O622        O  0.85931794  0.19119427  0.11951231    -0.77800
O623        O  0.77272003  0.15876484  0.14606010    -0.76000
O624        O  0.81404361  0.15724134  0.09159728    -1.12100
O625        O  0.74765212  0.16084587  0.08035478    -0.71300
C626        C  0.74664362  0.13594654  0.06478654     0.99400
C627        C  0.87788960  0.15258687  0.04812186     0.95800
Al628      Al  0.84795366  0.15102615  0.12035029     1.55600
O629        O  0.78959408  0.17292101  0.02428973    -0.75900
C630        C  0.79238146  0.15308619  0.17102414     1.00000
C631        C  0.84084524  0.09344847  0.09568805     0.94900
O632        O  0.83350759  0.10322834  0.06454106    -0.81300
O633        O  0.98044248  0.14530593  0.56000855    -0.80700
C634        C  0.91156380  0.05380988  0.62638708     0.98600
O635        O  0.94177179  0.05776778  0.63165700    -0.69800
O636        O  0.96320412  0.05967666  0.56657967    -0.73400
Al637      Al  0.96999071  0.08484596  0.60538553     1.49000
C638        C  0.96745649  0.06699056  0.53442330     0.93900
O639        O  0.90171780  0.10977931  0.53321419    -0.79600
O640        O  0.91218232  0.15632295  0.62278592    -0.73200
Al641      Al  0.94080021  0.12666367  0.54890133     1.90100
O642        O  0.87279739  0.12007335  0.58143813    -0.72300
O643        O  0.92960192  0.11238463  0.66558228    -0.72100
O644        O  0.89327230  0.07525600  0.61950148    -0.77800
O645        O  0.97987341  0.10769339  0.64604053    -0.76000
O646        O  0.93853856  0.10920847  0.59158207    -1.12100
O647        O  0.50492837  0.10560849  0.58032938    -0.71300
C648        C  0.50593185  0.13050500  0.56475926     0.99400
C649        C  0.87468210  0.11385849  0.54811562     0.95800
Al650      Al  0.90463461  0.11542470  0.62034018     1.55600
O651        O  0.96297496  0.09352432  0.52427034    -0.75900
C652        C  0.96021603  0.11336788  0.67101022     1.00000
C653        C  0.91173479  0.17299885  0.59567893     0.94900
O654        O  0.91906504  0.16321647  0.56453042    -0.81300
O655        O  0.58531778  0.35394900  0.43178729    -0.80700
C656        C  0.59214478  0.46253769  0.36826783     0.98600
O657        O  0.61052235  0.44111492  0.37503414    -0.69800
O658        O  0.63143925  0.39645461  0.41324266    -0.73400
Al659      Al  0.59902267  0.40096241  0.37487916     1.49000
C660        C  0.63013409  0.40306275  0.44648066     0.93900
O661        O  0.54233848  0.42424716  0.47162927    -0.79600
O662        O  0.99931739  0.41133548  0.41646252    -0.73200
Al663      Al  0.56398440  0.39074200  0.44720595     1.90100
O664        O  0.54120272  0.45745747  0.42860224    -0.72300
O665        O  0.52347620  0.40845592  0.35027563    -0.72100
O666        O  0.56189214  0.45852985  0.36328286    -0.77800
O667        O  0.57348155  0.40373540  0.32998034    -0.76000
O668        O  0.56555501  0.40759142  0.40413903    -1.12100
O669        O  0.59119786  0.36006692  0.37323411    -0.71300
C670        C  0.59206082  0.34374765  0.40067111     0.99400
C671        C  0.53766715  0.45062761  0.46101381     0.95800
Al672      Al  0.53392473  0.43178955  0.39042256     1.55600
O673        O  0.60337906  0.40775288  0.46172187    -0.75900
C674        C  0.54280802  0.40272592  0.32500589     1.00000
C675        C  0.99857036  0.38668987  0.43265094     0.94900
O676        O  0.52414644  0.37202078  0.43738055    -0.81300
O677        O  0.83531875  0.41248497  0.56439454    -0.80700
C678        C  0.84213427  0.30388541  0.62788270     0.98600
O679        O  0.86051402  0.32530969  0.62112556    -0.69800
O680        O  0.88143296  0.36997566  0.58292828    -0.73400
Al681      Al  0.84901912  0.36546277  0.62129155     1.49000
C682        C  0.88012564  0.36337416  0.54968505     0.93900
O683        O  0.79232059  0.34220089  0.52453378    -0.79600
O684        O  0.74930974  0.35510413  0.57970794    -0.73200
Al685      Al  0.81397677  0.37569766  0.54896721     1.90100
O686        O  0.79118549  0.30898106  0.56754946    -0.72300
O687        O  0.77347318  0.35796421  0.64589498    -0.72100
O688        O  0.81188245  0.30789194  0.63286783    -0.77800
O689        O  0.82348039  0.36268292  0.66619062    -0.76000
O690        O  0.81554790  0.35883973  0.59202964    -1.12100
O691        O  0.84119971  0.40635879  0.62294689    -0.71300
C692        C  0.84206538  0.42268237  0.59551229     0.99400
C693        C  0.78764533  0.31581822  0.53514177     0.95800
Al694      Al  0.78391635  0.33464040  0.60573908     1.55600
O695        O  0.85336826  0.35868641  0.53444592    -0.75900
C696        C  0.79280699  0.36369084  0.67116701     1.00000
C697        C  0.74856685  0.37975263  0.56352906     0.94900
O698        O  0.77414473  0.39442095  0.55880144    -0.81300
O699        O  0.73043548  0.12114619  0.43612202    -0.80700
C700        C  0.66154457  0.21262799  0.36973764     0.98600
O701        O  0.69175243  0.20867661  0.36446819    -0.69800
O702        O  0.71318183  0.20677250  0.42954761    -0.73400
Al703      Al  0.71997504  0.18160415  0.39074353     1.49000
C704        C  0.71743307  0.19945861  0.46170529     0.93900
O705        O  0.65170441  0.15665817  0.46290187    -0.79600
O706        O  0.66217890  0.11011385  0.37333505    -0.73200
Al707      Al  0.69078967  0.13978087  0.44722292     1.90100
O708        O  0.62278642  0.14635879  0.41467447    -0.72300
O709        O  0.67959560  0.15405308  0.33053928    -0.72100
O710        O  0.64325590  0.19117755  0.37661342    -0.77800
O711        O  0.72986439  0.15875935  0.35009025    -0.76000
O712        O  0.68852678  0.15723490  0.40454044    -1.12100
O713        O  0.75491548  0.16084859  0.41580358    -0.71300
C714        C  0.75592312  0.13595090  0.43137145     0.99400
C715        C  0.62466932  0.15257676  0.44799661     0.95800
Al716      Al  0.65462538  0.15101081  0.37577728     1.55600
O717        O  0.71295751  0.17292460  0.47185661    -0.75900
C718        C  0.71020971  0.15307623  0.32511977     1.00000
C719        C  0.66173342  0.09343816  0.40044212     0.94900
O720        O  0.66906112  0.10322381  0.43159154    -0.81300
C721        C  0.77488495  0.29300249  0.51222458    -0.17400
C722        C  0.76133889  0.27072932  0.50229658     0.06600
C723        C  0.74460320  0.24401728  0.49475932     0.08500
C724        C  0.73079607  0.22190031  0.48475457    -0.18300
C725        C  0.90864071  0.36357245  0.52726104    -0.17400
C726        C  0.92849935  0.36602184  0.50345133     0.06600
C727        C  0.94982527  0.37116896  0.47413075     0.08500
C728        C  0.96981846  0.37738216  0.45151535    -0.18300
C729        C  0.65865190  0.40287143  0.46890759    -0.17400
C730        C  0.67850507  0.40042757  0.49271823     0.06600
C731        C  0.69982795  0.39528191  0.52204980     0.08500
C732        C  0.71981437  0.38906731  0.54466531    -0.18300
C733        C  0.60595045  0.49181784  0.36949975    -0.17400
C734        C  0.61990590  0.01471096  0.37639600     0.06600
C735        C  0.63679919  0.04067624  0.38714732     0.08500
C736        C  0.64994986  0.06368027  0.39535532    -0.18300
C737        C  0.64767940  0.24187211  0.37098938    -0.17400
C738        C  0.63370818  0.26478099  0.37770785     0.06600
C739        C  0.61683044  0.29082911  0.38812061     0.08500
C740        C  0.60373540  0.31392648  0.39598146    -0.18300
C741        C  0.85374604  0.45250009  0.60020504    -0.17400
C742        C  0.86684692  0.47560029  0.60805700     0.06600
C743        C  0.88372823  0.50165054  0.61845080     0.08500
C744        C  0.89770140  0.02456406  0.62515199    -0.18300
C745        C  0.85593888  0.27460479  0.62663960    -0.17400
C746        C  0.86989364  0.25171633  0.61973634     0.06600
C747        C  0.88679103  0.22575392  0.60897777     0.08500
C748        C  0.89994459  0.20275540  0.60076714    -0.18300
C749        C  0.98082652  0.04455345  0.51137709    -0.17400
C750        C  0.99463822  0.02243758  0.50137658     0.06600
C751        C  0.51137395  0.49572587  0.49384617     0.08500
C752        C  0.52491598  0.47345032  0.48392389    -0.18300
C753        C  0.78489299  0.12655418  0.44973580    -0.17400
C754        C  0.80512916  0.12049062  0.47212981     0.06600
C755        C  0.82661787  0.11570929  0.50139103     0.08500
C756        C  0.84642356  0.11364558  0.52529880    -0.18300
C757        C  0.59641062  0.15279282  0.47080851    -0.17400
C758        C  0.57660804  0.15073538  0.49471926     0.06600
C759        C  0.55512712  0.14596185  0.52398701     0.08500
C760        C  0.53489705  0.13990221  0.54638839    -0.18300
C761        C  0.77867640  0.14704572  0.20613696    -0.17400
C762        C  0.76201998  0.14463671  0.23299589     0.06600
C763        C  0.74058332  0.14463367  0.26315219     0.08500
C764        C  0.72392358  0.14703824  0.29000943    -0.18300
C765        C  0.77869961  0.36973964  0.70612715    -0.17400
C766        C  0.76198941  0.37211768  0.73297171     0.06600
C767        C  0.74059351  0.37211871  0.76320802     0.08500
C768        C  0.72388211  0.36974218  0.79005253    -0.18300
C769        C  0.77175020  0.22189598  0.01139926    -0.17400
C770        C  0.75794571  0.24401372  0.00140021     0.06600
C771        C  0.74121776  0.27073012  0.99386828     0.08500
C772        C  0.72768044  0.29300609  0.98394453    -0.18300
C773        C  0.97388050  0.39669299  0.20612011    -0.17400
C774        C  0.99059214  0.39430561  0.23296655     0.06600
C775        C  0.51198710  0.39429781  0.26320158     0.08500
C776        C  0.52869882  0.39667353  0.29004754    -0.18300
C777        C  0.53276746  0.37738582  0.04466233    -0.17400
C778        C  0.55275502  0.37117053  0.02205140     0.06600
C779        C  0.57408310  0.36602133  0.99272318     0.08500
C780        C  0.59393625  0.36357413  0.96891671    -0.18300
C781        C  0.84393624  0.40289051  0.02725984    -0.17400
C782        C  0.82408213  0.40044590  0.00345070     0.06600
C783        C  0.80275605  0.39529722  0.97412117     0.08500
C784        C  0.78276757  0.38907960  0.95150941    -0.18300
C785        C  0.85263365  0.06369313  0.10077433    -0.17400
C786        C  0.86578862  0.04069330  0.10898708     0.06600
C787        C  0.88268555  0.01473441  0.11974714     0.08500
C788        C  0.89664241  0.49184519  0.12665198    -0.18300
C789        C  0.89883857  0.31394757  0.10018760    -0.17400
C790        C  0.88574229  0.29084939  0.10804209     0.06600
C791        C  0.86886411  0.26479912  0.11844462     0.08500
C792        C  0.85489289  0.24188783  0.12515428    -0.18300
C793        C  0.52865576  0.11939099  0.79002214    -0.17400
C794        C  0.51200316  0.12179870  0.76315593     0.06600
C795        C  0.99057682  0.12180283  0.73299194     0.08500
C796        C  0.97392291  0.11940085  0.70612326    -0.18300
C797        C  0.52175143  0.04456184  0.98477464    -0.17400
C798        C  0.50794619  0.02244467  0.99477922     0.06600
C799        C  0.99121750  0.49573137  0.00231512     0.08500
C800        C  0.97767840  0.47345447  0.01224189    -0.18300
C801        C  0.64663449  0.27461037  0.86952034    -0.17400
C802        C  0.63267629  0.25172021  0.87641806     0.06600
C803        C  0.61577775  0.22575871  0.88717025     0.08500
C804        C  0.60262306  0.20275881  0.89537831    -0.18300
C805        C  0.60488121  0.02456246  0.87101412    -0.17400
C806        C  0.61885491  0.50165221  0.87772391     0.06600
C807        C  0.63573631  0.47560387  0.88812587     0.08500
C808        C  0.64883575  0.45250713  0.89598124    -0.18300
C809        C  0.71767096  0.12654769  0.04642303    -0.17400
C810        C  0.69743590  0.12048667  0.02402813     0.06600
C811        C  0.67594724  0.11571103  0.99476215     0.08500
C812        C  0.65614404  0.11365292  0.97085346    -0.18300
C813        C  0.90614464  0.15280395  0.02530078    -0.17400
C814        C  0.92594531  0.15074478  0.00139114     0.06600
C815        C  0.94743124  0.14596663  0.97212649     0.08500
C816        C  0.96766578  0.13990313  0.94973328    -0.18300
O817        O  0.52212474  0.64530712  0.93612929    -0.80700
C818        C  0.59101677  0.55380587  0.86976848     0.98600
O819        O  0.56080860  0.55775818  0.86449496    -0.69800
O820        O  0.53937015  0.55967807  0.92956889    -0.73400
Al821      Al  0.53258503  0.58483901  0.89075989     1.49000
C822        C  0.53511616  0.56699789  0.96172531     0.93900
O823        O  0.60084906  0.60979468  0.96293494    -0.79600
O824        O  0.59039071  0.65632183  0.87336043    -0.73200
Al825      Al  0.56176700  0.62667128  0.94724294     1.90100
O826        O  0.62977383  0.62008040  0.91471291    -0.72300
O827        O  0.57297566  0.61237645  0.83056429    -0.72100
O828        O  0.60930505  0.57525670  0.87664951    -0.77800
O829        O  0.52270349  0.60767622  0.85010092    -0.76000
O830        O  0.56403410  0.60920855  0.90456322    -1.12100
O831        O  0.99764372  0.60560239  0.91580790    -0.71300
C832        C  0.99663656  0.63050276  0.93137367     0.99400
C833        C  0.62788553  0.61386931  0.94803469     0.95800
Al834      Al  0.59793974  0.61542411  0.87580814     1.55600
O835        O  0.53959328  0.59353461  0.97187469    -0.75900
C836        C  0.54236214  0.61335500  0.82513487     1.00000
C837        C  0.59083440  0.67300208  0.90046573     0.94900
O838        O  0.58350141  0.66322423  0.93161366    -0.81300
O839        O  0.91726184  0.85396508  0.06438343    -0.80700
C840        C  0.91044615  0.96256501  0.12789385     0.98600
O841        O  0.89206692  0.94114022  0.12113237    -0.69800
O842        O  0.87114654  0.89647680  0.08292480    -0.73400
Al843      Al  0.90356151  0.90098733  0.12128936     1.49000
C844        C  0.87245398  0.90308087  0.04968675     0.93900
O845        O  0.96025360  0.92425351  0.02454042    -0.79600
O846        O  0.50327040  0.91134779  0.07971248    -0.73200
Al847      Al  0.93860177  0.89075451  0.04896475     1.90100
O848        O  0.96139367  0.95747120  0.06756542    -0.72300
O849        O  0.97910751  0.90848308  0.14589738    -0.72100
O850        O  0.94069859  0.95855745  0.13288166    -0.77800
O851        O  0.92910066  0.90376408  0.16618911    -0.76000
O852        O  0.93703170  0.90761063  0.09203103    -1.12100
O853        O  0.91138002  0.86009136  0.12293634    -0.71300
C854        C  0.91051602  0.84376759  0.09549885     0.99400
C855        C  0.96492803  0.95063551  0.03515413     0.95800
Al856      Al  0.96866415  0.93180967  0.10574770     1.55600
O857        O  0.89921016  0.90776556  0.03444639    -0.75900
C858        C  0.95977435  0.90275242  0.17116505     1.00000
C859        C  0.50401330  0.88670023  0.06352651     0.94900
O860        O  0.97843540  0.87203163  0.05879395    -0.81300
O861        O  0.66726220  0.91249248  0.93178926    -0.80700
C862        C  0.66044120  0.80389004  0.86828449     0.98600
O863        O  0.64206340  0.82531424  0.87504470    -0.69800
O864        O  0.62114580  0.86998014  0.91324928    -0.73400
Al865      Al  0.65356076  0.86546745  0.87488551     1.49000
C866        C  0.62245441  0.86337898  0.94648955     0.93900
O867        O  0.71025609  0.84220781  0.97164118    -0.79600
O868        O  0.75326813  0.85511097  0.91646892    -0.73200
Al869      Al  0.68860232  0.87570517  0.94721172     1.90100
O870        O  0.71138965  0.80898758  0.92862021    -0.72300
O871        O  0.72910654  0.85796855  0.85028276    -0.72100
O872        O  0.69069357  0.80789624  0.86330177    -0.77800
O873        O  0.67909938  0.86268735  0.82998638    -0.76000
O874        O  0.68703043  0.85884576  0.90414708    -1.12100
O875        O  0.66138164  0.90636370  0.87323611    -0.71300
C876        C  0.66051595  0.92268886  0.90067220     0.99400
C877        C  0.71492789  0.81582512  0.96103003     0.95800
Al878      Al  0.71866108  0.83464597  0.89043468     1.55600
O879        O  0.64921029  0.85869364  0.96173055    -0.75900
C880        C  0.70977398  0.86369479  0.82501100     1.00000
C881        C  0.75401262  0.87976113  0.93264941     0.94900
O882        O  0.72843543  0.89442851  0.93738062    -0.81300
O883        O  0.77212984  0.62114354  0.06003074    -0.80700
C884        C  0.84103021  0.71264278  0.12639819     0.98600
O885        O  0.81082270  0.70868681  0.13167451    -0.69800
O886        O  0.78937771  0.70677321  0.06660040    -0.73400
Al887      Al  0.78259666  0.68160825  0.10540586     1.49000
C888        C  0.78511892  0.69945653  0.03444404     0.93900
O889        O  0.85085129  0.65666169  0.03322390    -0.79600
O890        O  0.84040522  0.61012831  0.12279482    -0.73200
Al891      Al  0.81177121  0.63978204  0.04891627     1.90100
O892        O  0.87978216  0.64637442  0.08144286    -0.72300
O893        O  0.82299409  0.65406865  0.16559603    -0.72100
O894        O  0.85931798  0.69119438  0.11951236    -0.77800
O895        O  0.77272007  0.65876482  0.14606004    -0.76000
O896        O  0.81404430  0.65724139  0.09159749    -1.12100
O897        O  0.74765216  0.66084564  0.08035460    -0.71300
C898        C  0.74664354  0.63594658  0.06478654     0.99400
C899        C  0.87789004  0.65258698  0.04812122     0.95800
Al900      Al  0.84795326  0.65102600  0.12035022     1.55600
O901        O  0.78959417  0.67292123  0.02428978    -0.75900
C902        C  0.79238153  0.65308618  0.17102403     1.00000
C903        C  0.84084511  0.59344906  0.09568791     0.94900
O904        O  0.83350762  0.60322835  0.06454101    -0.81300
O905        O  0.98044234  0.64530615  0.56000858    -0.80700
C906        C  0.91156302  0.55380946  0.62638699     0.98600
O907        O  0.94177187  0.55776778  0.63165705    -0.69800
O908        O  0.96320408  0.55967624  0.56658006    -0.73400
Al909      Al  0.96999086  0.58484605  0.60538542     1.49000
C910        C  0.96745634  0.56699086  0.53442316     0.93900
O911        O  0.90171775  0.60977955  0.53321440    -0.79600
O912        O  0.91218227  0.65632279  0.62278598    -0.73200
Al913      Al  0.94080038  0.62666307  0.54890128     1.90100
O914        O  0.87279740  0.62007334  0.58143828    -0.72300
O915        O  0.92960164  0.61238472  0.66558248    -0.72100
O916        O  0.89327272  0.57525573  0.61950160    -0.77800
O917        O  0.97987340  0.60769331  0.64604065    -0.76000
O918        O  0.93853828  0.60920875  0.59158191    -1.12100
O919        O  0.50492840  0.60560834  0.58032944    -0.71300
C920        C  0.50593108  0.63050483  0.56475960     0.99400
C921        C  0.87468173  0.61385834  0.54811521     0.95800
Al922      Al  0.90463462  0.61542467  0.62034026     1.55600
O923        O  0.96297480  0.59352461  0.52427013    -0.75900
C924        C  0.96021584  0.61336774  0.67100936     1.00000
C925        C  0.91173470  0.67299902  0.59567891     0.94900
O926        O  0.91906480  0.66321666  0.56453065    -0.81300
O927        O  0.58531774  0.85394897  0.43178731    -0.80700
C928        C  0.59214508  0.96253800  0.36826780     0.98600
O929        O  0.61052224  0.94111506  0.37503417    -0.69800
O930        O  0.63143936  0.89645446  0.41324215    -0.73400
Al931      Al  0.59902263  0.90096232  0.37487895     1.49000
C932        C  0.63013342  0.90306303  0.44648126     0.93900
O933        O  0.54233847  0.92424717  0.47162944    -0.79600
O934        O  0.99931702  0.91133517  0.41646281    -0.73200
Al935      Al  0.56398447  0.89074219  0.44720589     1.90100
O936        O  0.54120270  0.95745761  0.42860227    -0.72300
O937        O  0.52347619  0.90845600  0.35027583    -0.72100
O938        O  0.56189192  0.95852999  0.36328280    -0.77800
O939        O  0.57348174  0.90373546  0.32998059    -0.76000
O940        O  0.56555502  0.90759132  0.40413935    -1.12100
O941        O  0.59119786  0.86006709  0.37323399    -0.71300
C942        C  0.59206093  0.84374724  0.40067100     0.99400
C943        C  0.53766730  0.95062745  0.46101372     0.95800
Al944      Al  0.53392469  0.93178957  0.39042261     1.55600
O945        O  0.60337964  0.90775263  0.46172119    -0.75900
C946        C  0.54280764  0.90272583  0.32500532     1.00000
C947        C  0.99857108  0.88669077  0.43265011     0.94900
O948        O  0.52414663  0.87202027  0.43738088    -0.81300
O949        O  0.83531879  0.91248516  0.56439468    -0.80700
C950        C  0.84213449  0.80388526  0.62788267     0.98600
O951        O  0.86051386  0.82530977  0.62112565    -0.69800
O952        O  0.88143341  0.86997568  0.58292806    -0.73400
Al953      Al  0.84901880  0.86546271  0.62129133     1.49000
C954        C  0.88012457  0.86337437  0.54968632     0.93900
O955        O  0.79232059  0.84220066  0.52453382    -0.79600
O956        O  0.74930984  0.85510412  0.57970787    -0.73200
Al957      Al  0.81397685  0.87569754  0.54896734     1.90100
O958        O  0.79118559  0.80898073  0.56754982    -0.72300
O959        O  0.77347334  0.85796415  0.64589485    -0.72100
O960        O  0.81188284  0.80789205  0.63286784    -0.77800
O961        O  0.82348072  0.86268303  0.66619064    -0.76000
O962        O  0.81554866  0.85883996  0.59202992    -1.12100
O963        O  0.84119990  0.90635909  0.62294700    -0.71300
C964        C  0.84206516  0.92268178  0.59551220     0.99400
C965        C  0.78764549  0.81581868  0.53514148     0.95800
Al966      Al  0.78391589  0.83464040  0.60573891     1.55600
O967        O  0.85336824  0.85868639  0.53444531    -0.75900
C968        C  0.79280689  0.86369098  0.67116740     1.00000
C969        C  0.74856735  0.87975228  0.56352946     0.94900
O970        O  0.77414481  0.89442134  0.55880124    -0.81300
O971        O  0.73043546  0.62114612  0.43612191    -0.80700
C972        C  0.66154369  0.71262847  0.36973770     0.98600
O973        O  0.69175267  0.70867652  0.36446811    -0.69800
O974        O  0.71318176  0.70677228  0.42954775    -0.73400
Al975      Al  0.71997531  0.68160434  0.39074357     1.49000
C976        C  0.71743311  0.69945920  0.46170505     0.93900
O977        O  0.65170419  0.65665814  0.46290185    -0.79600
O978        O  0.66217907  0.61011363  0.37333515    -0.73200
Al979      Al  0.69078962  0.63978114  0.44722296     1.90100
O980        O  0.62278635  0.64635873  0.41467463    -0.72300
O981        O  0.67959615  0.65405298  0.33053934    -0.72100
O982        O  0.64325643  0.69117751  0.37661323    -0.77800
O983        O  0.72986442  0.65875939  0.35009025    -0.76000
O984        O  0.68852662  0.65723455  0.40454061    -1.12100
O985        O  0.75491526  0.66084855  0.41580352    -0.71300
C986        C  0.75592346  0.63595085  0.43137164     0.99400
C987        C  0.62467038  0.65257688  0.44799588     0.95800
Al988      Al  0.65462528  0.65101111  0.37577717     1.55600
O989        O  0.71295737  0.67292408  0.47185686    -0.75900
C990        C  0.71020927  0.65307625  0.32511978     1.00000
C991        C  0.66173359  0.59343852  0.40044239     0.94900
O992        O  0.66906122  0.60322363  0.43159140    -0.81300
C993        C  0.77488481  0.79300206  0.51222441    -0.17400
C994        C  0.76133894  0.77072951  0.50229666     0.06600
C995        C  0.74460329  0.74401731  0.49475927     0.08500
C996        C  0.73079614  0.72190031  0.48475471    -0.18300
C997        C  0.90864226  0.86357258  0.52725954    -0.17400
C998        C  0.92849776  0.86602146  0.50345352     0.06600
C999        C  0.94982719  0.87116957  0.47412849     0.08500
C1000       C  0.96981674  0.87738149  0.45151723    -0.18300
C1001       C  0.65865276  0.90287141  0.46890771    -0.17400
C1002       C  0.67850461  0.90042761  0.49271764     0.06600
C1003       C  0.69982829  0.89528172  0.52205026     0.08500
C1004       C  0.71981375  0.88906774  0.54466462    -0.18300
C1005       C  0.60595024  0.99181757  0.36949963    -0.17400
C1006       C  0.61990582  0.51471069  0.37639591     0.06600
C1007       C  0.63679928  0.54067642  0.38714738     0.08500
C1008       C  0.64994954  0.56367988  0.39535529    -0.18300
C1009       C  0.64767962  0.74187225  0.37098933    -0.17400
C1010       C  0.63370820  0.76478078  0.37770782     0.06600
C1011       C  0.61683034  0.79082917  0.38812059     0.08500
C1012       C  0.60373534  0.81392654  0.39598147    -0.18300
C1013       C  0.85374657  0.95250128  0.60020542    -0.17400
C1014       C  0.86684646  0.97559935  0.60805673     0.06600
C1015       C  0.88372869  0.00165136  0.61845106     0.08500
C1016       C  0.89770203  0.52456460  0.62515223    -0.18300
C1017       C  0.85593847  0.77460569  0.62663976    -0.17400
C1018       C  0.86989413  0.75171543  0.61973604     0.06600
C1019       C  0.88679061  0.72575465  0.60897805     0.08500
C1020       C  0.89994505  0.70275479  0.60076699    -0.18300
C1021       C  0.98082688  0.54455270  0.51137680    -0.17400
C1022       C  0.99463807  0.52243788  0.50137684     0.06600
C1023       C  0.51137410  0.99572579  0.49384618     0.08500
C1024       C  0.52491611  0.97345041  0.48392394    -0.18300
C1025       C  0.78489224  0.62655440  0.44973513    -0.17400
C1026       C  0.80512980  0.62049039  0.47213059     0.06600
C1027       C  0.82661732  0.61570937  0.50139039     0.08500
C1028       C  0.84642404  0.61364549  0.52529957    -0.18300
C1029       C  0.59640977  0.65279290  0.47080920    -0.17400
C1030       C  0.57660850  0.65073544  0.49471874     0.06600
C1031       C  0.55512657  0.64596169  0.52398761     0.08500
C1032       C  0.53489788  0.63990249  0.54638779    -0.18300
C1033       C  0.77867614  0.64704557  0.20613720    -0.17400
C1034       C  0.76202023  0.64463666  0.23299535     0.06600
C1035       C  0.74058298  0.64463362  0.26315269     0.08500
C1036       C  0.72392408  0.64703811  0.29000905    -0.18300
C1037       C  0.77870001  0.86973964  0.70612645    -0.17400
C1038       C  0.76198873  0.87211770  0.73297259     0.06600
C1039       C  0.74059414  0.87211871  0.76320711     0.08500
C1040       C  0.72388177  0.86974220  0.79005302    -0.18300
C1041       C  0.77175044  0.72189550  0.01139950    -0.17400
C1042       C  0.75794546  0.74401398  0.00140022     0.06600
C1043       C  0.74121790  0.77072978  0.99386846     0.08500
C1044       C  0.72768024  0.79300639  0.98394438    -0.18300
C1045       C  0.97388077  0.89669289  0.20612067    -0.17400
C1046       C  0.99059165  0.89430568  0.23296592     0.06600
C1047       C  0.51198657  0.89429783  0.26320085     0.08500
C1048       C  0.52869911  0.89667363  0.29004818    -0.18300
C1049       C  0.53276695  0.87738586  0.04466267    -0.17400
C1050       C  0.55275539  0.87117032  0.02205081     0.06600
C1051       C  0.57408247  0.86602128  0.99272388     0.08500
C1052       C  0.59393666  0.86357400  0.96891599    -0.18300
C1053       C  0.84393651  0.90289064  0.02726008    -0.17400
C1054       C  0.82408159  0.90044582  0.00345032     0.06600
C1055       C  0.80275643  0.89529741  0.97412203     0.08500
C1056       C  0.78276700  0.88907930  0.95150895    -0.18300
C1057       C  0.85263424  0.56369230  0.10077451    -0.17400
C1058       C  0.86578831  0.54069382  0.10898690     0.06600
C1059       C  0.88268601  0.51473378  0.11974732     0.08500
C1060       C  0.89664276  0.99184440  0.12665216    -0.18300
C1061       C  0.89883874  0.81394797  0.10018746    -0.17400
C1062       C  0.88574203  0.79084894  0.10804224     0.06600
C1063       C  0.86886429  0.76479948  0.11844450     0.08500
C1064       C  0.85489274  0.74188765  0.12515433    -0.18300
C1065       C  0.52865591  0.61939102  0.79002237    -0.17400
C1066       C  0.51200282  0.62179869  0.76315551     0.06600
C1067       C  0.99057643  0.62180279  0.73299129     0.08500
C1068       C  0.97392319  0.61940099  0.70612397    -0.18300
C1069       C  0.52175166  0.54456203  0.98477420    -0.17400
C1070       C  0.50794625  0.52244471  0.99477921     0.06600
C1071       C  0.99121729  0.99573105  0.00231528     0.08500
C1072       C  0.97767883  0.97345522  0.01224151    -0.18300
C1073       C  0.64663433  0.77461004  0.86952033    -0.17400
C1074       C  0.63267662  0.75172055  0.87641798     0.06600
C1075       C  0.61577757  0.72575843  0.88717046     0.08500
C1076       C  0.60262326  0.70275895  0.89537817    -0.18300
C1077       C  0.60488170  0.52456147  0.87101426    -0.17400
C1078       C  0.61885538  0.00165136  0.87772415     0.06600
C1079       C  0.63573593  0.97560449  0.88812575     0.08500
C1080       C  0.64883606  0.95250622  0.89598143    -0.18300
C1081       C  0.71767179  0.62654789  0.04642367    -0.17400
C1082       C  0.69743531  0.62048644  0.02402734     0.06600
C1083       C  0.67594788  0.61571112  0.99476291     0.08500
C1084       C  0.65614341  0.61365284  0.97085279    -0.18300
C1085       C  0.90614414  0.65280397  0.02530145    -0.17400
C1086       C  0.92594569  0.65074461  0.00139058     0.06600
C1087       C  0.94743083  0.64596674  0.97212686     0.08500
C1088       C  0.96766620  0.63990310  0.94973292    -0.18300
loop_ 
_geom_bond_atom_site_label_1 
_geom_bond_atom_site_label_2 
_geom_bond_distance 
_geom_bond_site_symmetry_2 
_ccdc_geom_bond_type 
O1           Al9   1.880       .  S
O1          C560   1.256   1_455  A
C2           O12   1.254       .  A
C2            O3   1.268       .  A
C2          C261   1.443       .  S
O3           Al5   1.949       .  S
O4           Al5   1.857       .  S
O4            C6   1.250       .  A
Al5          O13   1.873       .  S
Al5         O559   1.951   1_455  S
Al5          O14   1.774       .  S
C6           O19   1.273       .  A
C6          C253   1.437       .  S
O7           Al9   1.871       .  S
O7           C17   1.254       .  A
O8          Al18   1.881       .  S
O8           C21   1.258       .  A
Al9          O22   1.969       .  S
Al9          O19   1.979       .  S
Al9          O14   1.772       .  S
O10         Al18   1.958       .  S
O10          C17   1.270       .  A
O11         Al18   1.971       .  S
O11          C20   1.274       .  A
O12         Al18   1.879       .  S
O13          C20   1.255       .  A
O14         Al18   1.776       .  S
O15        Al549   1.951       .  S
O15          C16   1.268       .  A
C16         O545   1.255       .  A
C16         C272   1.435       .  S
C17         C268   1.436       .  S
C20         C249   1.445       .  S
C21          O22   1.273       .  A
C21         C260   1.445       .  S
O23         Al31   1.968       .  S
O23          C38   1.274       .  A
C24          O34   1.269       .  A
C24          O25   1.255       .  A
C24         C244   1.444       .  S
O25         Al27   1.880       .  S
O26         Al27   1.959       .  S
O26          C28   1.270       .  A
Al27         O35   1.972       .  S
Al27         O37   1.882       .  S
Al27         O36   1.777       .  S
C28          O41   1.254       .  A
C28         C237   1.436       .  S
O29         Al31   1.979       .  S
O29          C39   1.273       .  A
O30        Al584   1.952   1_455  S
O30          C43   1.268       .  A
Al31         O44   1.878       .  S
Al31         O41   1.871       .  S
Al31         O36   1.772       .  S
O32         Al40   1.857       .  S
O32          C39   1.250       .  A
O33         Al40   1.876       .  S
O33          C42   1.255       .  A
O34         Al40   1.949       .  S
O35          C42   1.274       .  A
O36         Al40   1.774       .  S
O37          C38   1.258       .  A
C38         C245   1.444       .  S
C39         C256   1.437       .  S
Al40        O574   1.952       .  S
C42         C229   1.446       .  S
C43         O588   1.255   1_455  A
C43         C233   1.436       .  S
O44         C587   1.255       .  A
O45         Al53   1.968       .  S
O45          C60   1.274       .  A
C46          O56   1.269       .  A
C46          O47   1.255       .  A
C46         C257   1.443       .  S
O47         Al49   1.880       .  S
O48         Al49   1.959       .  S
O48          C50   1.270       .  A
Al49         O57   1.972       .  S
Al49         O59   1.882       .  S
Al49         O58   1.777       .  S
C50          O63   1.254       .  A
C50         C236   1.436       .  S
O51         Al53   1.979       .  S
O51          C61   1.273       .  A
O52         Al62   1.952       .  S
O52          C65   1.268       .  A
Al53         O66   1.878       .  S
Al53         O63   1.871       .  S
Al53         O58   1.772       .  S
O54         Al62   1.857       .  S
O54          C61   1.250       .  A
O55         Al62   1.876       .  S
O55          C64   1.255       .  A
O56         Al62   1.949       .  S
O57          C64   1.274       .  A
O58         Al62   1.774       .  S
O59          C60   1.258       .  A
C60         C264   1.444       .  S
C61         C228   1.437       .  S
C64         C224   1.446       .  S
C65          O66   1.255       .  A
C65         C240   1.436       .  S
O67         Al75   1.880       .  S
O67          C82   1.256       .  A
C68          O78   1.254       .  A
C68          O69   1.268       .  A
C68         C248   1.443       .  S
O69         Al71   1.949       .  S
O70         Al71   1.857       .  S
O70          C72   1.250       .  A
Al71         O79   1.873       .  S
Al71         O81   1.951       .  S
Al71         O80   1.774       .  S
C72          O85   1.273       .  A
C72         C225   1.437       .  S
O73         Al75   1.871       .  S
O73          C83   1.254       .  A
O74         Al84   1.881       .  S
O74          C87   1.258       .  A
Al75         O88   1.969       .  S
Al75         O85   1.979       .  S
Al75         O80   1.772       .  S
O76         Al84   1.958       .  S
O76          C83   1.270       .  A
O77         Al84   1.971       .  S
O77          C86   1.274       .  A
O78         Al84   1.879       .  S
O79          C86   1.255       .  A
O80         Al84   1.776       .  S
O81          C82   1.268       .  A
C82         C265   1.435       .  S
C83         C269   1.436       .  S
C86         C217   1.445       .  S
C87          O88   1.273       .  A
C87         C241   1.445       .  S
O89         Al97   1.880       .  S
O89         C648   1.256       .  A
C90         O100   1.254       .  A
C90          O91   1.268       .  A
C90         C200   1.443       .  S
O91         Al93   1.949       .  S
O92         Al93   1.857       .  S
O92          C94   1.250       .  A
Al93        O101   1.873       .  S
Al93        O647   1.951       .  S
Al93        O102   1.774       .  S
C94         O107   1.273       .  A
C94         C205   1.437       .  S
O95         Al97   1.871       .  S
O95         C105   1.254       .  A
O96        Al106   1.881       .  S
O96         C109   1.258       .  A
Al97        O110   1.969       .  S
Al97        O107   1.979       .  S
Al97        O102   1.772       .  S
O98        Al106   1.958       .  S
O98         C105   1.270       .  A
O99        Al106   1.971       .  S
O99         C108   1.274       .  A
O100       Al106   1.879       .  S
O101        C108   1.255       .  A
O102       Al106   1.776       .  S
O103       Al637   1.951   1_455  S
O103        C104   1.268       .  A
C104        O633   1.256   1_455  A
C104        C216   1.435       .  S
C105        C212   1.436       .  S
C108        C252   1.445       .  S
C109        O110   1.273       .  A
C109        C204   1.445       .  S
O111       Al119   1.968       .  S
O111        C126   1.274       .  A
C112        O122   1.269       .  A
C112        O113   1.255       .  A
C112        C189   1.443       .  S
O113       Al115   1.880       .  S
O114       Al115   1.959       .  S
O114        C116   1.270       .  A
Al115       O123   1.972       .  S
Al115       O125   1.882       .  S
Al115       O124   1.777       .  S
C116        O129   1.254       .  A
C116        C185   1.436       .  S
O117       Al119   1.979       .  S
O117        C127   1.273       .  A
O118       Al672   1.952       .  S
O118        C131   1.268       .  A
Al119       O132   1.878       .  S
Al119       O129   1.871       .  S
Al119       O124   1.772       .  S
O120       Al128   1.857       .  S
O120        C127   1.250       .  A
O121       Al128   1.876       .  S
O121        C130   1.255       .  A
O122       Al128   1.949       .  S
O123        C130   1.274       .  A
O124       Al128   1.774       .  S
O125        C126   1.258       .  A
C126        C196   1.444       .  S
C127        C208   1.437       .  S
Al128       O662   1.952   1_455  S
C130        C232   1.446       .  S
C131        O676   1.255       .  A
C131        C184   1.436       .  S
O132        C675   1.255   1_455  A
O133       Al141   1.968       .  S
O133        C148   1.274       .  A
C134        O144   1.269       .  A
C134        O135   1.255       .  A
C134        C201   1.444       .  S
O135       Al137   1.880       .  S
O136       Al137   1.959       .  S
O136        C138   1.270       .  A
Al137       O145   1.972       .  S
Al137       O147   1.882       .  S
Al137       O146   1.777       .  S
C138        O151   1.254       .  A
C138        C181   1.436       .  S
O139       Al141   1.979       .  S
O139        C149   1.273       .  A
O140       Al150   1.952       .  S
O140        C153   1.268       .  A
Al141       O154   1.878       .  S
Al141       O151   1.871       .  S
Al141       O146   1.772       .  S
O142       Al150   1.857       .  S
O142        C149   1.250       .  A
O143       Al150   1.876       .  S
O143        C152   1.255       .  A
O144       Al150   1.949       .  S
O145        C152   1.274       .  A
O146       Al150   1.774       .  S
O147        C148   1.258       .  A
C148        C197   1.444       .  S
C149        C177   1.437       .  S
C152        C221   1.446       .  S
C153        O154   1.255       .  A
C153        C188   1.436       .  S
O155       Al163   1.880       .  S
O155        C170   1.256       .  A
C156        O166   1.254       .  A
C156        O157   1.268       .  A
C156        C193   1.443       .  S
O157       Al159   1.949       .  S
O158       Al159   1.857       .  S
O158        C160   1.250       .  A
Al159       O167   1.873       .  S
Al159       O169   1.951       .  S
Al159       O168   1.774       .  S
C160        O173   1.273       .  A
C160        C180   1.437       .  S
O161       Al163   1.871       .  S
O161        C171   1.254       .  A
O162       Al172   1.881       .  S
O162        C175   1.258       .  A
Al163       O176   1.969       .  S
Al163       O173   1.979       .  S
Al163       O168   1.772       .  S
O164       Al172   1.958       .  S
O164        C171   1.270       .  A
O165       Al172   1.971       .  S
O165        C174   1.274       .  A
O166       Al172   1.879       .  S
O167        C174   1.255       .  A
O168       Al172   1.776       .  S
O169        C170   1.268       .  A
C170        C209   1.435       .  S
C171        C213   1.436       .  S
C174        C220   1.445       .  S
C175        O176   1.273       .  A
C175        C192   1.445       .  S
C177        C178   1.210       .  T
C178        C179   1.420       .  S
C179        C180   1.210       .  T
C181        C182   1.207       .  T
C182        C183   1.416       .  S
C183        C184   1.207       .  T
C185        C186   1.207       .  T
C186        C187   1.416       .  S
C187        C188   1.207       .  T
C189        C462   1.212       .  T
C190        C461   1.212   1_545  T
C190        C191   1.423       .  S
C191        C192   1.213       .  T
C193        C194   1.212       .  T
C194        C195   1.422       .  S
C195        C196   1.212       .  T
C197        C198   1.212       .  T
C198        C199   1.422       .  S
C199        C472   1.212       .  T
C200        C471   1.212       .  T
C201        C202   1.212       .  T
C202        C203   1.423       .  S
C203        C204   1.213       .  T
C205        C206   1.210       .  T
C206       C1023   1.420   1_545  S
C207        C208   1.210       .  T
C207       C1022   1.420   1_455  S
C209        C210   1.207       .  T
C210        C211   1.415       .  S
C211        C212   1.207       .  T
C213        C214   1.207       .  T
C214        C215   1.415       .  S
C215        C216   1.206       .  T
C217        C218   1.213       .  T
C218        C219   1.423       .  S
C219        C220   1.213       .  T
C221        C222   1.214       .  T
C222        C223   1.424       .  S
C223        C224   1.214       .  T
C225        C226   1.210       .  T
C226        C227   1.420   1_554  S
C227        C228   1.210       .  T
C229        C230   1.214       .  T
C230        C775   1.425       .  S
C231        C232   1.214       .  T
C231        C774   1.424   1_455  S
C233        C234   1.207       .  T
C234        C235   1.416   1_554  S
C235        C236   1.207       .  T
C237        C238   1.207       .  T
C238        C239   1.416   1_554  S
C239        C240   1.207       .  T
C241        C242   1.213       .  T
C242        C243   1.423       .  S
C243        C516   1.212   1_545  T
C244        C515   1.212       .  T
C245        C246   1.212       .  T
C246        C247   1.422       .  S
C247        C248   1.212       .  T
C249        C250   1.213       .  T
C250        C795   1.423   1_455  S
C251        C252   1.213       .  T
C251        C794   1.423       .  S
C253        C254   1.210       .  T
C254       C1071   1.420   1_446  S
C255        C256   1.210       .  T
C255       C1070   1.420   1_554  S
C257        C258   1.212       .  T
C258        C259   1.423       .  S
C259        C260   1.213       .  T
C261        C534   1.212       .  T
C262        C533   1.212       .  T
C262        C263   1.422       .  S
C263        C264   1.212       .  T
C265        C266   1.207       .  T
C266        C267   1.415   1_554  S
C267        C268   1.207       .  T
C269        C270   1.207       .  T
C270        C271   1.415   1_554  S
C271        C272   1.206       .  T
O273       Al281   1.880       .  S
O273        C832   1.256   1_455  A
C274        O284   1.254       .  A
C274        O275   1.268       .  A
C274        C533   1.443       .  S
O275       Al277   1.949       .  S
O276       Al277   1.857       .  S
O276        C278   1.250       .  A
Al277       O285   1.873       .  S
Al277       O831   1.951   1_455  S
Al277       O286   1.774       .  S
C278        O291   1.273       .  A
C278        C525   1.437       .  S
O279       Al281   1.871       .  S
O279        C289   1.254       .  A
O280       Al290   1.881       .  S
O280        C293   1.258       .  A
Al281       O294   1.969       .  S
Al281       O291   1.979       .  S
Al281       O286   1.772       .  S
O282       Al290   1.958       .  S
O282        C289   1.270       .  A
O283       Al290   1.971       .  S
O283        C292   1.274       .  A
O284       Al290   1.879       .  S
O285        C292   1.255       .  A
O286       Al290   1.776       .  S
O287       Al821   1.951       .  S
O287        C288   1.268       .  A
C288        O817   1.256       .  A
C288        C544   1.435       .  S
C289        C540   1.436       .  S
C292        C521   1.445       .  S
C293        O294   1.273       .  A
C293        C532   1.445       .  S
O295       Al303   1.968       .  S
O295        C310   1.274       .  A
C296        O306   1.269       .  A
C296        O297   1.255       .  A
C296        C516   1.444       .  S
O297       Al299   1.880       .  S
O298       Al299   1.959       .  S
O298        C300   1.270       .  A
Al299       O307   1.972       .  S
Al299       O309   1.882       .  S
Al299       O308   1.777       .  S
C300        O313   1.254       .  A
C300        C509   1.436       .  S
O301       Al303   1.979       .  S
O301        C311   1.273       .  A
O302       Al856   1.952   1_455  S
O302        C315   1.268       .  A
Al303       O316   1.878       .  S
Al303       O313   1.871       .  S
Al303       O308   1.772       .  S
O304       Al312   1.857       .  S
O304        C311   1.250       .  A
O305       Al312   1.876       .  S
O305        C314   1.255       .  A
O306       Al312   1.949       .  S
O307        C314   1.274       .  A
O308       Al312   1.774       .  S
O309        C310   1.258       .  A
C310        C517   1.444       .  S
C311        C528   1.437       .  S
Al312       O846   1.952       .  S
C314        C501   1.446       .  S
C315        O860   1.255   1_455  A
C315        C505   1.436       .  S
O316        C859   1.255       .  A
O317       Al325   1.968       .  S
O317        C332   1.274       .  A
C318        O328   1.269       .  A
C318        O319   1.255       .  A
C318        C529   1.443       .  S
O319       Al321   1.880       .  S
O320       Al321   1.959       .  S
O320        C322   1.270       .  A
Al321       O329   1.972       .  S
Al321       O331   1.882       .  S
Al321       O330   1.777       .  S
C322        O335   1.254       .  A
C322        C508   1.436       .  S
O323       Al325   1.979       .  S
O323        C333   1.273       .  A
O324       Al334   1.952       .  S
O324        C337   1.268       .  A
Al325       O338   1.878       .  S
Al325       O335   1.871       .  S
Al325       O330   1.772       .  S
O326       Al334   1.857       .  S
O326        C333   1.250       .  A
O327       Al334   1.876       .  S
O327        C336   1.255       .  A
O328       Al334   1.949       .  S
O329        C336   1.274       .  A
O330       Al334   1.774       .  S
O331        C332   1.258       .  A
C332        C536   1.444       .  S
C333        C500   1.437       .  S
C336        C496   1.446       .  S
C337        O338   1.255       .  A
C337        C512   1.436       .  S
O339       Al347   1.880       .  S
O339        C354   1.255       .  A
C340        O350   1.254       .  A
C340        O341   1.268       .  A
C340        C520   1.443       .  S
O341       Al343   1.949       .  S
O342       Al343   1.857       .  S
O342        C344   1.250       .  A
Al343       O351   1.873       .  S
Al343       O353   1.951       .  S
Al343       O352   1.774       .  S
C344        O357   1.273       .  A
C344        C497   1.437       .  S
O345       Al347   1.871       .  S
O345        C355   1.254       .  A
O346       Al356   1.881       .  S
O346        C359   1.258       .  A
Al347       O360   1.969       .  S
Al347       O357   1.979       .  S
Al347       O352   1.772       .  S
O348       Al356   1.958       .  S
O348        C355   1.270       .  A
O349       Al356   1.971       .  S
O349        C358   1.274       .  A
O350       Al356   1.879       .  S
O351        C358   1.255       .  A
O352       Al356   1.776       .  S
O353        C354   1.268       .  A
C354        C537   1.435       .  S
C355        C541   1.436       .  S
C358        C489   1.445       .  S
C359        O360   1.273       .  A
C359        C513   1.445       .  S
O361       Al369   1.880       .  S
O361        C920   1.255       .  A
C362        O372   1.254       .  A
C362        O363   1.268       .  A
C362        C472   1.443       .  S
O363       Al365   1.949       .  S
O364       Al365   1.857       .  S
O364        C366   1.250       .  A
Al365       O373   1.873       .  S
Al365       O919   1.951       .  S
Al365       O374   1.774       .  S
C366        O379   1.273       .  A
C366        C477   1.437       .  S
O367       Al369   1.871       .  S
O367        C377   1.254       .  A
O368       Al378   1.881       .  S
O368        C381   1.258       .  A
Al369       O382   1.969       .  S
Al369       O379   1.979       .  S
Al369       O374   1.772       .  S
O370       Al378   1.958       .  S
O370        C377   1.270       .  A
O371       Al378   1.971       .  S
O371        C380   1.274       .  A
O372       Al378   1.879       .  S
O373        C380   1.255       .  A
O374       Al378   1.776       .  S
O375       Al909   1.951   1_455  S
O375        C376   1.268       .  A
C376        O905   1.256   1_455  A
C376        C488   1.435       .  S
C377        C484   1.436       .  S
C380        C524   1.445       .  S
C381        O382   1.273       .  A
C381        C476   1.445       .  S
O383       Al391   1.968       .  S
O383        C398   1.274       .  A
C384        O394   1.269       .  A
C384        O385   1.255       .  A
C384        C461   1.443       .  S
O385       Al387   1.880       .  S
O386       Al387   1.959       .  S
O386        C388   1.270       .  A
Al387       O395   1.972       .  S
Al387       O397   1.882       .  S
Al387       O396   1.777       .  S
C388        O401   1.254       .  A
C388        C457   1.436       .  S
O389       Al391   1.979       .  S
O389        C399   1.273       .  A
O390       Al944   1.952       .  S
O390        C403   1.268       .  A
Al391       O404   1.878       .  S
Al391       O401   1.871       .  S
Al391       O396   1.772       .  S
O392       Al400   1.857       .  S
O392        C399   1.250       .  A
O393       Al400   1.876       .  S
O393        C402   1.255       .  A
O394       Al400   1.949       .  S
O395        C402   1.274       .  A
O396       Al400   1.774       .  S
O397        C398   1.258       .  A
C398        C468   1.444       .  S
C399        C480   1.437       .  S
Al400       O934   1.952   1_455  S
C402        C504   1.446       .  S
C403        O948   1.255       .  A
C403        C456   1.436       .  S
O404        C947   1.255   1_455  A
O405       Al413   1.968       .  S
O405        C420   1.274       .  A
C406        O416   1.269       .  A
C406        O407   1.255       .  A
C406        C473   1.443       .  S
O407       Al409   1.880       .  S
O408       Al409   1.959       .  S
O408        C410   1.270       .  A
Al409       O417   1.972       .  S
Al409       O419   1.882       .  S
Al409       O418   1.777       .  S
C410        O423   1.254       .  A
C410        C453   1.436       .  S
O411       Al413   1.979       .  S
O411        C421   1.273       .  A
O412       Al422   1.952       .  S
O412        C425   1.268       .  A
Al413       O426   1.878       .  S
Al413       O423   1.871       .  S
Al413       O418   1.772       .  S
O414       Al422   1.857       .  S
O414        C421   1.250       .  A
O415       Al422   1.876       .  S
O415        C424   1.255       .  A
O416       Al422   1.949       .  S
O417        C424   1.274       .  A
O418       Al422   1.774       .  S
O419        C420   1.258       .  A
C420        C469   1.444       .  S
C421        C449   1.437       .  S
C424        C493   1.446       .  S
C425        O426   1.255       .  A
C425        C460   1.436       .  S
O427       Al435   1.880       .  S
O427        C442   1.256       .  A
C428        O438   1.254       .  A
C428        O429   1.268       .  A
C428        C465   1.443       .  S
O429       Al431   1.949       .  S
O430       Al431   1.857       .  S
O430        C432   1.250       .  A
Al431       O439   1.873       .  S
Al431       O441   1.951       .  S
Al431       O440   1.774       .  S
C432        O445   1.273       .  A
C432        C452   1.437       .  S
O433       Al435   1.871       .  S
O433        C443   1.254       .  A
O434       Al444   1.881       .  S
O434        C447   1.258       .  A
Al435       O448   1.969       .  S
Al435       O445   1.979       .  S
Al435       O440   1.772       .  S
O436       Al444   1.958       .  S
O436        C443   1.270       .  A
O437       Al444   1.971       .  S
O437        C446   1.274       .  A
O438       Al444   1.879       .  S
O439        C446   1.255       .  A
O440       Al444   1.776       .  S
O441        C442   1.268       .  A
C442        C481   1.435       .  S
C443        C485   1.436       .  S
C446        C492   1.445       .  S
C447        O448   1.273       .  A
C447        C464   1.445       .  S
C449        C450   1.210       .  T
C450        C451   1.420       .  S
C451        C452   1.210       .  T
C453        C454   1.207       .  T
C454        C455   1.416       .  S
C455        C456   1.207       .  T
C457        C458   1.207       .  T
C458        C459   1.416       .  S
C459        C460   1.207       .  T
C462        C463   1.423       .  S
C463        C464   1.213       .  T
C465        C466   1.212       .  T
C466        C467   1.422       .  S
C467        C468   1.212       .  T
C469        C470   1.212       .  T
C470        C471   1.422   1_565  S
C473        C474   1.212       .  T
C474        C475   1.423       .  S
C475        C476   1.213       .  T
C477        C478   1.210       .  T
C478        C751   1.420       .  S
C479        C480   1.210       .  T
C479        C750   1.420   1_465  S
C481        C482   1.207       .  T
C482        C483   1.415       .  S
C483        C484   1.207       .  T
C485        C486   1.207       .  T
C486        C487   1.415       .  S
C487        C488   1.206       .  T
C489        C490   1.213       .  T
C490        C491   1.423       .  S
C491        C492   1.213       .  T
C493        C494   1.214       .  T
C494        C495   1.425       .  S
C495        C496   1.214       .  T
C497        C498   1.210       .  T
C498        C499   1.420   1_554  S
C499        C500   1.210       .  T
C501        C502   1.214       .  T
C502       C1047   1.424       .  S
C503        C504   1.214       .  T
C503       C1046   1.424   1_455  S
C505        C506   1.207       .  T
C506        C507   1.416   1_554  S
C507        C508   1.207       .  T
C509        C510   1.207       .  T
C510        C511   1.416   1_554  S
C511        C512   1.207       .  T
C513        C514   1.213       .  T
C514        C515   1.423       .  S
C517        C518   1.212       .  T
C518        C519   1.422       .  S
C519        C520   1.212       .  T
C521        C522   1.213       .  T
C522       C1067   1.423   1_455  S
C523        C524   1.213       .  T
C523       C1066   1.423       .  S
C525        C526   1.210       .  T
C526        C799   1.420   1_456  S
C527        C528   1.210       .  T
C527        C798   1.420   1_564  S
C529        C530   1.212       .  T
C530        C531   1.423       .  S
C531        C532   1.213       .  T
C534        C535   1.422   1_545  S
C535        C536   1.212       .  T
C537        C538   1.206       .  T
C538        C539   1.415   1_554  S
C539        C540   1.207       .  T
C541        C542   1.207       .  T
C542        C543   1.415   1_554  S
C543        C544   1.207       .  T
O545       Al553   1.880       .  S
C546        O556   1.254       .  A
C546        O547   1.268       .  A
C546        C805   1.443       .  S
O547       Al549   1.949       .  S
O548       Al549   1.857       .  S
O548        C550   1.250       .  A
Al549       O557   1.873       .  S
Al549       O558   1.774       .  S
C550        O563   1.273       .  A
C550        C797   1.437       .  S
O551       Al553   1.871       .  S
O551        C561   1.254       .  A
O552       Al562   1.881       .  S
O552        C565   1.258       .  A
Al553       O566   1.969       .  S
Al553       O563   1.979       .  S
Al553       O558   1.772       .  S
O554       Al562   1.958       .  S
O554        C561   1.270       .  A
O555       Al562   1.971       .  S
O555        C564   1.274       .  A
O556       Al562   1.879       .  S
O557        C564   1.255       .  A
O558       Al562   1.776       .  S
O559        C560   1.268       .  A
C560        C816   1.435       .  S
C561        C812   1.436       .  S
C564        C793   1.445       .  S
C565        O566   1.273       .  A
C565        C804   1.445       .  S
O567       Al575   1.968       .  S
O567        C582   1.274       .  A
C568        O578   1.269       .  A
C568        O569   1.255       .  A
C568        C788   1.444       .  S
O569       Al571   1.880       .  S
O570       Al571   1.959       .  S
O570        C572   1.270       .  A
Al571       O579   1.972       .  S
Al571       O581   1.882       .  S
Al571       O580   1.777       .  S
C572        O585   1.254       .  A
C572        C781   1.436       .  S
O573       Al575   1.979       .  S
O573        C583   1.273       .  A
O574        C587   1.268       .  A
Al575       O588   1.878       .  S
Al575       O585   1.871       .  S
Al575       O580   1.772       .  S
O576       Al584   1.857       .  S
O576        C583   1.250       .  A
O577       Al584   1.876       .  S
O577        C586   1.255       .  A
O578       Al584   1.949       .  S
O579        C586   1.274       .  A
O580       Al584   1.774       .  S
O581        C582   1.258       .  A
C582        C789   1.444       .  S
C583        C800   1.437       .  S
C586        C773   1.446       .  S
C587        C777   1.436       .  S
O589       Al597   1.968       .  S
O589        C604   1.274       .  A
C590        O600   1.269       .  A
C590        O591   1.255       .  A
C590        C801   1.443       .  S
O591       Al593   1.880       .  S
O592       Al593   1.959       .  S
O592        C594   1.270       .  A
Al593       O601   1.972       .  S
Al593       O603   1.882       .  S
Al593       O602   1.777       .  S
C594        O607   1.254       .  A
C594        C780   1.436       .  S
O595       Al597   1.979       .  S
O595        C605   1.273       .  A
O596       Al606   1.952       .  S
O596        C609   1.268       .  A
Al597       O610   1.878       .  S
Al597       O607   1.871       .  S
Al597       O602   1.772       .  S
O598       Al606   1.857       .  S
O598        C605   1.250       .  A
O599       Al606   1.876       .  S
O599        C608   1.255       .  A
O600       Al606   1.949       .  S
O601        C608   1.274       .  A
O602       Al606   1.774       .  S
O603        C604   1.258       .  A
C604        C808   1.444       .  S
C605        C772   1.437       .  S
C608        C768   1.446       .  S
C609        O610   1.255       .  A
C609        C784   1.436       .  S
O611       Al619   1.880       .  S
O611        C626   1.255       .  A
C612        O622   1.254       .  A
C612        O613   1.268       .  A
C612        C792   1.443       .  S
O613       Al615   1.949       .  S
O614       Al615   1.857       .  S
O614        C616   1.250       .  A
Al615       O623   1.873       .  S
Al615       O625   1.951       .  S
Al615       O624   1.774       .  S
C616        O629   1.273       .  A
C616        C769   1.437       .  S
O617       Al619   1.870       .  S
O617        C627   1.254       .  A
O618       Al628   1.881       .  S
O618        C631   1.258       .  A
Al619       O632   1.969       .  S
Al619       O629   1.979       .  S
Al619       O624   1.772       .  S
O620       Al628   1.958       .  S
O620        C627   1.270       .  A
O621       Al628   1.971       .  S
O621        C630   1.274       .  A
O622       Al628   1.879       .  S
O623        C630   1.255       .  A
O624       Al628   1.776       .  S
O625        C626   1.268       .  A
C626        C809   1.435       .  S
C627        C813   1.436       .  S
C630        C761   1.445       .  S
C631        O632   1.273       .  A
C631        C785   1.445       .  S
O633       Al641   1.880       .  S
C634        O644   1.254       .  A
C634        O635   1.268       .  A
C634        C744   1.443       .  S
O635       Al637   1.949       .  S
O636       Al637   1.857       .  S
O636        C638   1.250       .  A
Al637       O645   1.873       .  S
Al637       O646   1.774       .  S
C638        O651   1.273       .  A
C638        C749   1.437       .  S
O639       Al641   1.871       .  S
O639        C649   1.254       .  A
O640       Al650   1.881       .  S
O640        C653   1.258       .  A
Al641       O654   1.969       .  S
Al641       O651   1.979       .  S
Al641       O646   1.772       .  S
O642       Al650   1.958       .  S
O642        C649   1.270       .  A
O643       Al650   1.971       .  S
O643        C652   1.274       .  A
O644       Al650   1.879       .  S
O645        C652   1.255       .  A
O646       Al650   1.776       .  S
O647        C648   1.268       .  A
C648        C760   1.435       .  S
C649        C756   1.436       .  S
C652        C796   1.445       .  S
C653        O654   1.273       .  A
C653        C748   1.445       .  S
O655       Al663   1.968       .  S
O655        C670   1.274       .  A
C656        O666   1.269       .  A
C656        O657   1.255       .  A
C656        C733   1.443       .  S
O657       Al659   1.880       .  S
O658       Al659   1.959       .  S
O658        C660   1.270       .  A
Al659       O667   1.972       .  S
Al659       O669   1.882       .  S
Al659       O668   1.777       .  S
C660        O673   1.254       .  A
C660        C729   1.436       .  S
O661       Al663   1.979       .  S
O661        C671   1.273       .  A
O662        C675   1.268       .  A
Al663       O676   1.878       .  S
Al663       O673   1.871       .  S
Al663       O668   1.772       .  S
O664       Al672   1.857       .  S
O664        C671   1.250       .  A
O665       Al672   1.876       .  S
O665        C674   1.255       .  A
O666       Al672   1.949       .  S
O667        C674   1.274       .  A
O668       Al672   1.774       .  S
O669        C670   1.258       .  A
C670        C740   1.444       .  S
C671        C752   1.437       .  S
C674        C776   1.446       .  S
C675        C728   1.436       .  S
O677       Al685   1.968       .  S
O677        C692   1.274       .  A
C678        O688   1.269       .  A
C678        O679   1.255       .  A
C678        C745   1.444       .  S
O679       Al681   1.880       .  S
O680       Al681   1.959       .  S
O680        C682   1.270       .  A
Al681       O689   1.972       .  S
Al681       O691   1.882       .  S
Al681       O690   1.777       .  S
C682        O695   1.254       .  A
C682        C725   1.436       .  S
O683       Al685   1.979       .  S
O683        C693   1.273       .  A
O684       Al694   1.952       .  S
O684        C697   1.268       .  A
Al685       O698   1.878       .  S
Al685       O695   1.871       .  S
Al685       O690   1.772       .  S
O686       Al694   1.857       .  S
O686        C693   1.250       .  A
O687       Al694   1.876       .  S
O687        C696   1.255       .  A
O688       Al694   1.949       .  S
O689        C696   1.274       .  A
O690       Al694   1.774       .  S
O691        C692   1.258       .  A
C692        C741   1.444       .  S
C693        C721   1.437       .  S
C696        C765   1.446       .  S
C697        O698   1.255       .  A
C697        C732   1.436       .  S
O699       Al707   1.880       .  S
O699        C714   1.256       .  A
C700        O710   1.254       .  A
C700        O701   1.268       .  A
C700        C737   1.443       .  S
O701       Al703   1.949       .  S
O702       Al703   1.857       .  S
O702        C704   1.250       .  A
Al703       O711   1.873       .  S
Al703       O713   1.951       .  S
Al703       O712   1.774       .  S
C704        O717   1.273       .  A
C704        C724   1.437       .  S
O705       Al707   1.871       .  S
O705        C715   1.254       .  A
O706       Al716   1.881       .  S
O706        C719   1.258       .  A
Al707       O720   1.969       .  S
Al707       O717   1.979       .  S
Al707       O712   1.772       .  S
O708       Al716   1.958       .  S
O708        C715   1.270       .  A
O709       Al716   1.971       .  S
O709        C718   1.274       .  A
O710       Al716   1.879       .  S
O711        C718   1.255       .  A
O712       Al716   1.776       .  S
O713        C714   1.268       .  A
C714        C753   1.435       .  S
C715        C757   1.436       .  S
C718        C764   1.445       .  S
C719        O720   1.273       .  A
C719        C736   1.445       .  S
C721        C722   1.210       .  T
C722        C723   1.420       .  S
C723        C724   1.210       .  T
C725        C726   1.207       .  T
C726        C727   1.416       .  S
C727        C728   1.207       .  T
C729        C730   1.207       .  T
C730        C731   1.416       .  S
C731        C732   1.207       .  T
C733       C1006   1.212       .  T
C734       C1005   1.212   1_545  T
C734        C735   1.423       .  S
C735        C736   1.213       .  T
C737        C738   1.212       .  T
C738        C739   1.422       .  S
C739        C740   1.212       .  T
C741        C742   1.212       .  T
C742        C743   1.422       .  S
C743       C1016   1.212       .  T
C744       C1015   1.212       .  T
C745        C746   1.212       .  T
C746        C747   1.423       .  S
C747        C748   1.213       .  T
C749        C750   1.210       .  T
C751        C752   1.210       .  T
C753        C754   1.207       .  T
C754        C755   1.415       .  S
C755        C756   1.207       .  T
C757        C758   1.207       .  T
C758        C759   1.415       .  S
C759        C760   1.207       .  T
C761        C762   1.213       .  T
C762        C763   1.423       .  S
C763        C764   1.213       .  T
C765        C766   1.214       .  T
C766        C767   1.425       .  S
C767        C768   1.214       .  T
C769        C770   1.210       .  T
C770        C771   1.420   1_554  S
C771        C772   1.210       .  T
C773        C774   1.214       .  T
C775        C776   1.214       .  T
C777        C778   1.207       .  T
C778        C779   1.416   1_554  S
C779        C780   1.207       .  T
C781        C782   1.207       .  T
C782        C783   1.416   1_554  S
C783        C784   1.207       .  T
C785        C786   1.213       .  T
C786        C787   1.423       .  S
C787       C1060   1.212   1_545  T
C788       C1059   1.212       .  T
C789        C790   1.212       .  T
C790        C791   1.422       .  S
C791        C792   1.212       .  T
C793        C794   1.213       .  T
C795        C796   1.213       .  T
C797        C798   1.210       .  T
C799        C800   1.210       .  T
C801        C802   1.212       .  T
C802        C803   1.423       .  S
C803        C804   1.213       .  T
C805       C1078   1.212       .  T
C806       C1077   1.212       .  T
C806        C807   1.422       .  S
C807        C808   1.212       .  T
C809        C810   1.206       .  T
C810        C811   1.415   1_554  S
C811        C812   1.207       .  T
C813        C814   1.207       .  T
C814        C815   1.415   1_554  S
C815        C816   1.206       .  T
O817       Al825   1.880       .  S
C818        O828   1.254       .  A
C818        O819   1.268       .  A
C818       C1077   1.443       .  S
O819       Al821   1.949       .  S
O820       Al821   1.857       .  S
O820        C822   1.250       .  A
Al821       O829   1.873       .  S
Al821       O830   1.774       .  S
C822        O835   1.273       .  A
C822       C1069   1.437       .  S
O823       Al825   1.871       .  S
O823        C833   1.254       .  A
O824       Al834   1.881       .  S
O824        C837   1.258       .  A
Al825       O838   1.969       .  S
Al825       O835   1.979       .  S
Al825       O830   1.772       .  S
O826       Al834   1.958       .  S
O826        C833   1.270       .  A
O827       Al834   1.971       .  S
O827        C836   1.274       .  A
O828       Al834   1.879       .  S
O829        C836   1.255       .  A
O830       Al834   1.776       .  S
O831        C832   1.268       .  A
C832       C1088   1.435       .  S
C833       C1084   1.436       .  S
C836       C1065   1.445       .  S
C837        O838   1.273       .  A
C837       C1076   1.445       .  S
O839       Al847   1.968       .  S
O839        C854   1.274       .  A
C840        O850   1.269       .  A
C840        O841   1.255       .  A
C840       C1060   1.443       .  S
O841       Al843   1.880       .  S
O842       Al843   1.959       .  S
O842        C844   1.270       .  A
Al843       O851   1.972       .  S
Al843       O853   1.882       .  S
Al843       O852   1.777       .  S
C844        O857   1.254       .  A
C844       C1053   1.436       .  S
O845       Al847   1.979       .  S
O845        C855   1.273       .  A
O846        C859   1.268       .  A
Al847       O860   1.878       .  S
Al847       O857   1.871       .  S
Al847       O852   1.772       .  S
O848       Al856   1.857       .  S
O848        C855   1.250       .  A
O849       Al856   1.876       .  S
O849        C858   1.255       .  A
O850       Al856   1.949       .  S
O851        C858   1.274       .  A
O852       Al856   1.774       .  S
O853        C854   1.258       .  A
C854       C1061   1.444       .  S
C855       C1072   1.437       .  S
C858       C1045   1.446       .  S
C859       C1049   1.436       .  S
O861       Al869   1.968       .  S
O861        C876   1.274       .  A
C862        O872   1.269       .  A
C862        O863   1.255       .  A
C862       C1073   1.443       .  S
O863       Al865   1.880       .  S
O864       Al865   1.959       .  S
O864        C866   1.270       .  A
Al865       O873   1.972       .  S
Al865       O875   1.882       .  S
Al865       O874   1.777       .  S
C866        O879   1.254       .  A
C866       C1052   1.436       .  S
O867       Al869   1.979       .  S
O867        C877   1.273       .  A
O868       Al878   1.952       .  S
O868        C881   1.268       .  A
Al869       O882   1.878       .  S
Al869       O879   1.871       .  S
Al869       O874   1.772       .  S
O870       Al878   1.857       .  S
O870        C877   1.250       .  A
O871       Al878   1.876       .  S
O871        C880   1.255       .  A
O872       Al878   1.949       .  S
O873        C880   1.274       .  A
O874       Al878   1.774       .  S
O875        C876   1.258       .  A
C876       C1080   1.444       .  S
C877       C1044   1.437       .  S
C880       C1040   1.446       .  S
C881        O882   1.255       .  A
C881       C1056   1.436       .  S
O883       Al891   1.880       .  S
O883        C898   1.255       .  A
C884        O894   1.254       .  A
C884        O885   1.268       .  A
C884       C1064   1.443       .  S
O885       Al887   1.949       .  S
O886       Al887   1.857       .  S
O886        C888   1.250       .  A
Al887       O895   1.873       .  S
Al887       O897   1.951       .  S
Al887       O896   1.774       .  S
C888        O901   1.273       .  A
C888       C1041   1.437       .  S
O889       Al891   1.871       .  S
O889        C899   1.254       .  A
O890       Al900   1.881       .  S
O890        C903   1.258       .  A
Al891       O904   1.969       .  S
Al891       O901   1.979       .  S
Al891       O896   1.772       .  S
O892       Al900   1.958       .  S
O892        C899   1.270       .  A
O893       Al900   1.971       .  S
O893        C902   1.274       .  A
O894       Al900   1.879       .  S
O895        C902   1.255       .  A
O896       Al900   1.776       .  S
O897        C898   1.268       .  A
C898       C1081   1.435       .  S
C899       C1085   1.436       .  S
C902       C1033   1.445       .  S
C903        O904   1.273       .  A
C903       C1057   1.445       .  S
O905       Al913   1.880       .  S
C906        O916   1.254       .  A
C906        O907   1.268       .  A
C906       C1016   1.443       .  S
O907       Al909   1.949       .  S
O908       Al909   1.857       .  S
O908        C910   1.250       .  A
Al909       O917   1.873       .  S
Al909       O918   1.774       .  S
C910        O923   1.273       .  A
C910       C1021   1.437       .  S
O911       Al913   1.871       .  S
O911        C921   1.254       .  A
O912       Al922   1.881       .  S
O912        C925   1.258       .  A
Al913       O926   1.969       .  S
Al913       O923   1.979       .  S
Al913       O918   1.772       .  S
O914       Al922   1.958       .  S
O914        C921   1.270       .  A
O915       Al922   1.971       .  S
O915        C924   1.274       .  A
O916       Al922   1.879       .  S
O917        C924   1.255       .  A
O918       Al922   1.776       .  S
O919        C920   1.268       .  A
C920       C1032   1.435       .  S
C921       C1028   1.436       .  S
C924       C1068   1.445       .  S
C925        O926   1.273       .  A
C925       C1020   1.445       .  S
O927       Al935   1.968       .  S
O927        C942   1.274       .  A
C928        O938   1.269       .  A
C928        O929   1.255       .  A
C928       C1005   1.443       .  S
O929       Al931   1.880       .  S
O930       Al931   1.959       .  S
O930        C932   1.270       .  A
Al931       O939   1.972       .  S
Al931       O941   1.882       .  S
Al931       O940   1.777       .  S
C932        O945   1.254       .  A
C932       C1001   1.436       .  S
O933       Al935   1.979       .  S
O933        C943   1.273       .  A
O934        C947   1.268       .  A
Al935       O948   1.878       .  S
Al935       O945   1.871       .  S
Al935       O940   1.772       .  S
O936       Al944   1.857       .  S
O936        C943   1.250       .  A
O937       Al944   1.876       .  S
O937        C946   1.255       .  A
O938       Al944   1.949       .  S
O939        C946   1.274       .  A
O940       Al944   1.774       .  S
O941        C942   1.258       .  A
C942       C1012   1.444       .  S
C943       C1024   1.437       .  S
C946       C1048   1.446       .  S
C947       C1000   1.436       .  S
O949       Al957   1.968       .  S
O949        C964   1.274       .  A
C950        O960   1.269       .  A
C950        O951   1.255       .  A
C950       C1017   1.443       .  S
O951       Al953   1.880       .  S
O952       Al953   1.959       .  S
O952        C954   1.270       .  A
Al953       O961   1.972       .  S
Al953       O963   1.882       .  S
Al953       O962   1.777       .  S
C954        O967   1.254       .  A
C954        C997   1.436       .  S
O955       Al957   1.979       .  S
O955        C965   1.273       .  A
O956       Al966   1.952       .  S
O956        C969   1.268       .  A
Al957       O970   1.878       .  S
Al957       O967   1.871       .  S
Al957       O962   1.772       .  S
O958       Al966   1.857       .  S
O958        C965   1.250       .  A
O959       Al966   1.876       .  S
O959        C968   1.255       .  A
O960       Al966   1.949       .  S
O961        C968   1.274       .  A
O962       Al966   1.774       .  S
O963        C964   1.258       .  A
C964       C1013   1.444       .  S
C965        C993   1.437       .  S
C968       C1037   1.446       .  S
C969        O970   1.255       .  A
C969       C1004   1.436       .  S
O971       Al979   1.880       .  S
O971        C986   1.256       .  A
C972        O982   1.254       .  A
C972        O973   1.268       .  A
C972       C1009   1.443       .  S
O973       Al975   1.949       .  S
O974       Al975   1.857       .  S
O974        C976   1.250       .  A
Al975       O983   1.873       .  S
Al975       O985   1.951       .  S
Al975       O984   1.774       .  S
C976        O989   1.273       .  A
C976        C996   1.437       .  S
O977       Al979   1.871       .  S
O977        C987   1.254       .  A
O978       Al988   1.881       .  S
O978        C991   1.258       .  A
Al979       O992   1.969       .  S
Al979       O989   1.979       .  S
Al979       O984   1.772       .  S
O980       Al988   1.958       .  S
O980        C987   1.270       .  A
O981       Al988   1.971       .  S
O981        C990   1.274       .  A
O982       Al988   1.879       .  S
O983        C990   1.255       .  A
O984       Al988   1.776       .  S
O985        C986   1.268       .  A
C986       C1025   1.435       .  S
C987       C1029   1.436       .  S
C990       C1036   1.445       .  S
C991        O992   1.273       .  A
C991       C1008   1.445       .  S
C993        C994   1.210       .  T
C994        C995   1.420       .  S
C995        C996   1.210       .  T
C997        C998   1.207       .  T
C998        C999   1.416       .  S
C999       C1000   1.207       .  T
C1001      C1002   1.207       .  T
C1002      C1003   1.416       .  S
C1003      C1004   1.207       .  T
C1006      C1007   1.423       .  S
C1007      C1008   1.213       .  T
C1009      C1010   1.212       .  T
C1010      C1011   1.422       .  S
C1011      C1012   1.212       .  T
C1013      C1014   1.212       .  T
C1014      C1015   1.422   1_565  S
C1017      C1018   1.212       .  T
C1018      C1019   1.423       .  S
C1019      C1020   1.213       .  T
C1021      C1022   1.210       .  T
C1023      C1024   1.210       .  T
C1025      C1026   1.207       .  T
C1026      C1027   1.415       .  S
C1027      C1028   1.207       .  T
C1029      C1030   1.207       .  T
C1030      C1031   1.415       .  S
C1031      C1032   1.206       .  T
C1033      C1034   1.213       .  T
C1034      C1035   1.423       .  S
C1035      C1036   1.213       .  T
C1037      C1038   1.214       .  T
C1038      C1039   1.424       .  S
C1039      C1040   1.214       .  T
C1041      C1042   1.210       .  T
C1042      C1043   1.420   1_554  S
C1043      C1044   1.210       .  T
C1045      C1046   1.214       .  T
C1047      C1048   1.214       .  T
C1049      C1050   1.207       .  T
C1050      C1051   1.416   1_554  S
C1051      C1052   1.207       .  T
C1053      C1054   1.207       .  T
C1054      C1055   1.416   1_554  S
C1055      C1056   1.207       .  T
C1057      C1058   1.213       .  T
C1058      C1059   1.423       .  S
C1061      C1062   1.212       .  T
C1062      C1063   1.422       .  S
C1063      C1064   1.212       .  T
C1065      C1066   1.213       .  T
C1067      C1068   1.213       .  T
C1069      C1070   1.210       .  T
C1071      C1072   1.210       .  T
C1073      C1074   1.212       .  T
C1074      C1075   1.423       .  S
C1075      C1076   1.213       .  T
C1078      C1079   1.422   1_545  S
C1079      C1080   1.212       .  T
C1081      C1082   1.207       .  T
C1082      C1083   1.415   1_554  S
C1083      C1084   1.207       .  T
C1085      C1086   1.207       .  T
C1086      C1087   1.415   1_554  S
C1087      C1088   1.207       .  T
