geometry optimzed in LAMMPS
_audit_creation_date              2020-12-01 
_audit_creation_method            'lammps2cif' 
_symmetry_space_group_name_H-M    'P1' 
_symmetry_Int_Tables_number       1 
_symmetry_cell_setting            triclinic 
loop_ 
_symmetry_equiv_pos_as_xyz 
  x,y,z 
_cell_length_a                    29.45235879 
_cell_length_b                    105.92374249489572 
_cell_length_c                    55.498458051462656 
_cell_angle_alpha                 90.06309181039691 
_cell_angle_beta                  89.9715831868229 
_cell_angle_gamma                 90.02230286590262 
loop_ 
_atom_site_label 
_atom_site_type_symbol 
_atom_site_fract_x 
_atom_site_fract_y 
_atom_site_fract_z 
_atom_site_charge 
O1          O  0.05925986  0.93049823  0.51281626    -0.73900
O2          O  0.09129348  0.93145877  0.44528229    -0.73900
O3          O  0.09857218  0.91434690  0.48144427    -0.74000
O4          O  0.04970568  0.94740634  0.47655276    -0.74000
O5          O  0.11629963  0.95582630  0.48696128    -0.74000
O6          O  0.16707888  0.92215014  0.49000831    -0.73900
O7          O  0.15816462  0.93982721  0.45540746    -0.73900
O8          O  0.12789626  0.93811680  0.52171197    -0.74000
Ni9        Ni  0.07227454  0.93066325  0.47864979     1.25400
Ni10       Ni  0.14473366  0.93931684  0.48882322     1.25400
C11         C  0.08923294  0.93391886  0.52831412     0.88300
C12         C  0.13075882  0.93563796  0.43947748     0.88200
C13         C  0.14046270  0.91271567  0.48648852     0.88200
C14         C  0.07417444  0.95703840  0.48132241     0.88400
O15         O  0.32535692  0.81160244  0.50557531    -0.73900
O16         O  0.29130787  0.81042447  0.43820649    -0.73900
O17         O  0.28584110  0.82778721  0.47421412    -0.74000
O18         O  0.33307317  0.79448252  0.46947609    -0.74000
O19         O  0.26609008  0.78642502  0.48023453    -0.74000
O20         O  0.21742670  0.82028057  0.48387905    -0.73900
O21         O  0.22397133  0.80258991  0.44900420    -0.73900
O22         O  0.25671997  0.80417033  0.51504762    -0.74000
Ni23       Ni  0.31133310  0.81133722  0.47144918     1.25400
Ni24       Ni  0.23868786  0.80304316  0.48233126     1.25400
C25         C  0.29573805  0.80822574  0.52132894     0.88300
C26         C  0.25130505  0.80647516  0.43277861     0.88200
C27         C  0.24434214  0.82959811  0.47998209     0.88200
C28         C  0.30812053  0.78499479  0.47457418     0.88400
O29         O  0.31330357  0.92926966  0.20929233    -0.73900
O30         O  0.27643360  0.93072676  0.27597872    -0.73900
O31         O  0.27225871  0.91330906  0.24022869    -0.74000
O32         O  0.31963212  0.94649735  0.24510879    -0.74000
O33         O  0.25327480  0.95462657  0.23353017    -0.74000
O34         O  0.20425673  0.92086252  0.22986334    -0.73900
O35         O  0.20968682  0.93866177  0.26447576    -0.73900
O36         O  0.24514537  0.93668994  0.19886484    -0.74000
Ni37       Ni  0.29780990  0.92969341  0.24310582     1.25400
Ni38       Ni  0.22571834  0.93804414  0.23134227     1.25400
C39         C  0.28434725  0.93252876  0.19316707     0.88300
C40         C  0.23636845  0.93473909  0.28096752     0.88200
C41         C  0.23099088  0.91155503  0.23408996     0.88200
C42         C  0.29504818  0.95599971  0.23970281     0.88400
O43         O  0.05879274  0.81007229  0.20388036    -0.73900
O44         O  0.09202691  0.80888114  0.27129149    -0.73900
O45         O  0.09914655  0.82597075  0.23521927    -0.74000
O46         O  0.04904290  0.79309614  0.23995567    -0.74000
O47         O  0.11532889  0.78457019  0.22925306    -0.74000
O48         O  0.16730590  0.81804805  0.22618894    -0.73900
O49         O  0.15851925  0.80040216  0.26080376    -0.73900
O50         O  0.12702194  0.80232369  0.19453408    -0.74000
Ni51       Ni  0.07233577  0.80976507  0.23800135     1.25400
Ni52       Ni  0.14439399  0.80097799  0.22739593     1.25400
C53         C  0.08842698  0.80667053  0.18816658     0.88300
C54         C  0.13162512  0.80469790  0.27687897     0.88200
C55         C  0.14092603  0.82750172  0.22990914     0.88200
C56         C  0.07310244  0.78345586  0.23481045     0.88400
O57         O  0.30424953  0.43041262  0.70351041    -0.73900
O58         O  0.26647553  0.43158494  0.77016652    -0.73900
O59         O  0.26428069  0.41425611  0.73427518    -0.74000
O60         O  0.30898578  0.44762815  0.73947351    -0.74000
O61         O  0.24249967  0.45545295  0.72737031    -0.74000
O62         O  0.19567772  0.42139094  0.72397259    -0.73900
O63         O  0.19964717  0.43934575  0.75840572    -0.73900
O64         O  0.23562280  0.43739010  0.69286418    -0.74000
Ni65       Ni  0.28840861  0.43074025  0.73732047     1.25400
Ni66       Ni  0.21595034  0.43871975  0.72530920     1.25400
C67         C  0.27513748  0.43342464  0.68727279     0.88300
C68         C  0.22613079  0.43544144  0.77500823     0.88200
C69         C  0.22318905  0.41224765  0.72812024     0.88200
C70         C  0.28408224  0.45701002  0.73376964     0.88400
O71         O  0.05230209  0.31024263  0.70196279    -0.73900
O72         O  0.08731619  0.30851190  0.76899981    -0.73900
O73         O  0.09106420  0.32615269  0.73376423    -0.74000
O74         O  0.04606336  0.29275601  0.73726150    -0.74000
O75         O  0.11335896  0.28505484  0.72603029    -0.74000
O76         O  0.15989090  0.31915422  0.72349595    -0.73900
O77         O  0.15494394  0.30109630  0.75765205    -0.73900
O78         O  0.12117508  0.30319364  0.69187500    -0.74000
Ni79       Ni  0.06675454  0.30965267  0.73593552     1.25400
Ni80       Ni  0.13976055  0.30180812  0.72443725     1.25400
C81         C  0.08192892  0.30721367  0.68597010     0.88300
C82         C  0.12760886  0.30472033  0.77412208     0.88200
C83         C  0.13225593  0.32824465  0.72786489     0.88200
C84         C  0.07146050  0.28344102  0.73180239     0.88400
O85         O  0.03679122  0.42827966  0.00427359    -0.73900
O86         O  0.07253290  0.42935267  0.93718636    -0.73900
O87         O  0.07696189  0.41210012  0.97320390    -0.74000
O88         O  0.02985142  0.44534388  0.96811601    -0.74000
O89         O  0.09643406  0.45346422  0.97939102    -0.74000
O90         O  0.14525304  0.41964665  0.98304105    -0.73900
O91         O  0.13935249  0.43734762  0.94844392    -0.73900
O92         O  0.10526418  0.43568233  0.01417569    -0.74000
Ni93       Ni  0.05158753  0.42851174  0.97026944     1.25400
Ni94       Ni  0.12392310  0.43686296  0.98159522     1.25400
C95         C  0.06613339  0.43161408  0.02019713     0.88300
C96         C  0.11262899  0.43332514  0.93205287     0.88200
C97         C  0.11845206  0.41032745  0.97893035     0.88200
C98         C  0.05458714  0.45485669  0.97334902     0.88400
O99         O  0.30731763  0.31057196  0.00508009    -0.73900
O100        O  0.27383377  0.30824887  0.93786454    -0.73900
O101        O  0.26636286  0.32594250  0.97297397    -0.74000
O102        O  0.31705057  0.29306984  0.96989085    -0.74000
O103        O  0.25104193  0.28461295  0.98122693    -0.74000
O104        O  0.19845560  0.31804225  0.98253796    -0.73900
O105        O  0.20755021  0.29983135  0.94888853    -0.73900
O106        O  0.23923239  0.30288533  0.01491253    -0.74000
Ni107      Ni  0.29354195  0.30972821  0.97102688     1.25400
Ni108      Ni  0.22171883  0.30099653  0.98220810     1.25400
C109        C  0.27788551  0.30731079  0.02099236     0.88300
C110        C  0.23440984  0.30386264  0.93254726     0.88200
C111        C  0.22456910  0.32749470  0.97833959     0.88200
C112        C  0.29318105  0.28346472  0.97556974     0.88400
O113        O  0.18597265  0.18047521  0.45805340    -0.73900
O114        O  0.22061758  0.18216149  0.52506689    -0.73900
O115        O  0.17792897  0.19777704  0.49375429    -0.74000
O116        O  0.22632771  0.16471288  0.48952056    -0.74000
O117        O  0.29460169  0.17235497  0.47985553    -0.74000
O118        O  0.24420605  0.20602350  0.48228729    -0.73900
O119        O  0.28725724  0.19035951  0.51401672    -0.73900
O120        O  0.25433973  0.18791855  0.44803870    -0.74000
Ni121      Ni  0.20030467  0.18102762  0.49201990     1.25400
Ni122      Ni  0.27248718  0.18950741  0.48072283     1.25400
C123        C  0.21539072  0.18366762  0.44207998     0.88300
C124        C  0.26034819  0.18632912  0.53033799     0.88200
C125        C  0.20228348  0.20731728  0.48827801     0.88200
C126        C  0.26789887  0.16301129  0.48395322     0.88400
O127        O  0.43998180  0.06157397  0.45824146    -0.73900
O128        O  0.40245374  0.05963810  0.52486149    -0.73900
O129        O  0.44708791  0.04420600  0.49376307    -0.74000
O130        O  0.39778582  0.07715471  0.48941018    -0.74000
O131        O  0.33010895  0.06939235  0.47895002    -0.74000
O132        O  0.38157220  0.03581728  0.48149235    -0.73900
O133        O  0.33651399  0.05132884  0.51297855    -0.73900
O134        O  0.37218038  0.05403113  0.44744137    -0.74000
Ni135      Ni  0.42419265  0.06089920  0.49203655     1.25400
Ni136      Ni  0.35273537  0.05228630  0.47986386     1.25400
C137        C  0.41120328  0.05839649  0.44194091     0.88300
C138        C  0.36258360  0.05539909  0.52964874     0.88200
C139        C  0.42336642  0.03461589  0.48781979     0.88200
C140        C  0.35642625  0.07878341  0.48337262     0.88400
O141        O  0.23310016  0.03528847  0.73545001    -0.73900
O142        O  0.28560657  0.06862848  0.73788689    -0.73900
O143        O  0.24352669  0.05335762  0.76963793    -0.74000
O144        O  0.27761115  0.05068964  0.70377823    -0.74000
O145        O  0.21173302  0.05918885  0.69236604    -0.74000
O146        O  0.17577255  0.06104563  0.75921495    -0.73900
O147        O  0.21802790  0.07662232  0.72795133    -0.73900
O148        O  0.16745214  0.04374274  0.72357248    -0.74000
Ni149      Ni  0.26229645  0.05163852  0.73702882     1.25400
Ni150      Ni  0.19085304  0.06042036  0.72533627     1.25400
C151        C  0.19122181  0.03413689  0.72933981     0.88300
C152        C  0.25970088  0.07809822  0.73359452     0.88200
C153        C  0.20459249  0.05771827  0.77536764     0.88200
C154        C  0.25133861  0.05486339  0.68730053     0.88400
O155        O  0.43582493  0.17926196  0.76235856    -0.73900
O156        O  0.40424996  0.18085596  0.69475028    -0.73900
O157        O  0.44550145  0.19653927  0.72658029    -0.74000
O158        O  0.39711405  0.16341955  0.73027351    -0.74000
O159        O  0.32862183  0.17107732  0.73944533    -0.74000
O160        O  0.37834540  0.20474856  0.73667263    -0.73900
O161        O  0.33687287  0.18882911  0.70510898    -0.73900
O162        O  0.36727372  0.18692020  0.77130354    -0.74000
Ni163      Ni  0.42316411  0.17976203  0.72812165     1.25400
Ni164      Ni  0.35044006  0.18822639  0.73845730     1.25400
C165        C  0.40569152  0.18256911  0.77789027     0.88300
C166        C  0.36454622  0.18490705  0.68907051     0.88200
C167        C  0.42046417  0.20606995  0.73112129     0.88200
C168        C  0.35534681  0.16173387  0.73544295     0.88400
O169        O  0.42774344  0.56037163  0.95230568    -0.73900
O170        O  0.39465118  0.55843929  0.01963146    -0.73900
O171        O  0.43584842  0.54283755  0.98750598    -0.74000
O172        O  0.38894721  0.57614908  0.98454013    -0.74000
O173        O  0.32013307  0.56879975  0.97516787    -0.74000
O174        O  0.36880759  0.53488462  0.97657802    -0.73900
O175        O  0.32722423  0.55063339  0.00890064    -0.73900
O176        O  0.35886510  0.55316573  0.94269461    -0.74000
Ni177      Ni  0.41422938  0.55969296  0.98640426     1.25400
Ni178      Ni  0.34136795  0.55154216  0.97550816     1.25400
C179        C  0.39785619  0.55729549  0.93648644     0.88300
C180        C  0.35474767  0.55444186  0.02511005     0.88200
C181        C  0.41088587  0.53340262  0.98208189     0.88200
C182        C  0.34727258  0.57803389  0.97941975     0.88400
O183        O  0.18093973  0.67992541  0.95476679    -0.73900
O184        O  0.21032432  0.68241045  0.02246653    -0.73900
O185        O  0.17081178  0.69775240  0.98937887    -0.74000
O186        O  0.21803711  0.66442837  0.98788873    -0.74000
O187        O  0.28711796  0.67173825  0.97895447    -0.74000
O188        O  0.23855314  0.70563942  0.97947958    -0.73900
O189        O  0.27841355  0.69003869  0.01245134    -0.73900
O190        O  0.25008388  0.68721923  0.94596168    -0.74000
Ni191      Ni  0.19256022  0.68088852  0.98901160     1.25400
Ni192      Ni  0.26593927  0.68898690  0.97892878     1.25400
C193        C  0.21158415  0.68292034  0.93931444     0.88300
C194        C  0.25000890  0.68640208  0.02836638     0.88200
C195        C  0.19616919  0.70714476  0.98428640     0.88200
C196        C  0.25982191  0.66252116  0.98300597     0.88400
O197        O  0.17070554  0.56156573  0.25584702    -0.73900
O198        O  0.20125240  0.55982364  0.18807968    -0.73900
O199        O  0.16087029  0.54420445  0.22047467    -0.74000
O200        O  0.20845658  0.57741654  0.22347297    -0.74000
O201        O  0.27734523  0.57001788  0.23242535    -0.74000
O202        O  0.22835904  0.53614942  0.23029462    -0.73900
O203        O  0.26904373  0.55204976  0.19814787    -0.73900
O204        O  0.23970381  0.55415379  0.26452782    -0.74000
Ni205      Ni  0.18288142  0.56100979  0.22157053     1.25400
Ni206      Ni  0.25601871  0.55276847  0.23161522     1.25400
C207        C  0.20108757  0.55832063  0.27125130     0.88300
C208        C  0.24094772  0.55580561  0.18220935     0.88200
C209        C  0.18596775  0.53474623  0.22537301     0.88200
C210        C  0.25012326  0.57928001  0.22870078     0.88400
O211        O  0.43024853  0.68036546  0.25937444    -0.73900
O212        O  0.39852153  0.68200433  0.19199133    -0.73900
O213        O  0.43932520  0.69769436  0.22395685    -0.74000
O214        O  0.39161303  0.66449171  0.22743375    -0.74000
O215        O  0.32284346  0.67198550  0.23643568    -0.74000
O216        O  0.37219385  0.70581382  0.23432810    -0.73900
O217        O  0.33103925  0.68995141  0.20224800    -0.73900
O218        O  0.36144447  0.68776476  0.26860370    -0.74000
Ni219      Ni  0.41734038  0.68088286  0.22529461     1.25400
Ni220      Ni  0.34446516  0.68920628  0.23571358     1.25400
C221        C  0.40025096  0.68357904  0.27500449     0.88300
C222        C  0.35894999  0.68611372  0.18623877     0.88200
C223        C  0.41439123  0.70718784  0.22894483     0.88200
C224        C  0.34987372  0.66268757  0.23261539     0.88400
O225        O  0.06420984  0.92984137  0.70925951    -0.73900
O226        O  0.53032818  0.93067807  0.77660001    -0.73900
O227        O  0.52671201  0.91339308  0.74062076    -0.74000
O228        O  0.07035501  0.94693540  0.74543121    -0.74000
O229        O  0.50283318  0.95458787  0.73460625    -0.74000
O230        O  0.45751041  0.92038916  0.73114313    -0.73900
O231        O  0.46241657  0.93811572  0.76584591    -0.73900
O232        O  0.49484391  0.93673541  0.69987781    -0.74000
Ni233      Ni  0.55037948  0.92997863  0.74338260     1.25400
Ni234      Ni  0.47698589  0.93776860  0.73257568     1.25400
C235        C  0.53414156  0.93291333  0.69355127     0.88300
C236        C  0.48998099  0.93431897  0.78201875     0.88200
C237        C  0.48538492  0.91129724  0.73500338     0.88200
C238        C  0.04468967  0.95626078  0.74035989     0.88400
O239        O  0.30655091  0.81042828  0.70319123    -0.73900
O240        O  0.33697005  0.80884613  0.77088262    -0.73900
O241        O  0.34504270  0.82622066  0.73535214    -0.74000
O242        O  0.29607810  0.79323339  0.73877913    -0.74000
O243        O  0.36306284  0.78490648  0.72878160    -0.74000
O244        O  0.41377909  0.81855300  0.72679649    -0.73900
O245        O  0.40431234  0.80069608  0.76096160    -0.73900
O246        O  0.37534981  0.80287240  0.69442163    -0.74000
Ni247      Ni  0.31872426  0.80994172  0.73742484     1.25400
Ni248      Ni  0.39150501  0.80141273  0.72743875     1.25400
C249        C  0.33686554  0.80714321  0.68774821     0.88300
C250        C  0.37642505  0.80470634  0.77682155     0.88200
C251        C  0.38695270  0.82790710  0.73047029     0.88200
C252        C  0.32076252  0.78365824  0.73401287     0.88400
O253        O  0.30507187  0.93040712  0.01187817    -0.73900
O254        O  0.33998052  0.93171858  0.94480665    -0.73900
O255        O  0.34575032  0.91448340  0.98063814    -0.74000
O256        O  0.29675071  0.94748923  0.97586831    -0.74000
O257        O  0.36285892  0.95587987  0.98726095    -0.74000
O258        O  0.41392004  0.92228107  0.99003175    -0.73900
O259        O  0.40621896  0.94016312  0.95584758    -0.73900
O260        O  0.37334432  0.93797359  0.02173638    -0.74000
Ni261      Ni  0.31945735  0.93076391  0.97789229     1.25400
Ni262      Ni  0.39144311  0.93941393  0.98906575     1.25400
C263        C  0.33442178  0.93375146  0.02777708     0.88300
C264        C  0.37964171  0.93596004  0.93954944     0.88200
C265        C  0.38748697  0.91287116  0.98592837     0.88200
C266        C  0.32094155  0.95708481  0.98117573     0.88400
O267        O  0.06053006  0.81124500  0.00731264    -0.73900
O268        O  0.02794326  0.80956459  0.93989568    -0.73900
O269        O  0.52143235  0.82711884  0.97537198    -0.74000
O270        O  0.06916925  0.79386205  0.97179024    -0.74000
O271        O  0.00197906  0.78581186  0.98226121    -0.74000
O272        O  0.45285604  0.81956977  0.98467678    -0.73900
O273        O  0.46049545  0.80167260  0.95036181    -0.73900
O274        O  0.49182831  0.80381945  0.01664310    -0.74000
Ni275      Ni  0.04720738  0.81070661  0.97318345     1.25400
Ni276      Ni  0.47441428  0.80239310  0.98379266     1.25400
C277        C  0.03070817  0.80798726  0.02302011     0.88300
C278        C  0.48818368  0.80551942  0.93426254     0.88200
C279        C  0.47974252  0.82887902  0.98069767     0.88200
C280        C  0.04413359  0.78439662  0.97687098     0.88400
O281        O  0.41546834  0.56180235  0.75435805    -0.73900
O282        O  0.45208379  0.55981036  0.68739733    -0.73900
O283        O  0.40774636  0.54441753  0.71876482    -0.74000
O284        O  0.95710641  0.57738766  0.72288551    -0.74000
O285        O  0.02474305  0.56963263  0.73332044    -0.74000
O286        O  0.97355135  0.53606302  0.73062883    -0.73900
O287        O  0.01815112  0.55158012  0.69917511    -0.73900
O288        O  0.98329058  0.55416978  0.76478440    -0.74000
Ni289      Ni  0.43069665  0.56111443  0.72038588     1.25400
Ni290      Ni  0.00227194  0.55251750  0.73230068     1.25400
C291        C  0.44441141  0.55852901  0.77052588     0.88300
C292        C  0.99198615  0.55559110  0.68253119     0.88200
C293        C  0.43164006  0.53485028  0.72456412     0.88200
C294        C  0.99846355  0.57902707  0.72898386     0.88400
O295        O  0.18820265  0.67855499  0.75814928    -0.73900
O296        O  0.15340756  0.68071246  0.69110304    -0.73900
O297        O  0.19763749  0.69594048  0.72277096    -0.74000
O298        O  0.14632168  0.66318085  0.72643460    -0.74000
O299        O  0.07880389  0.67121166  0.73638945    -0.74000
O300        O  0.13180272  0.70454796  0.73399602    -0.73900
O301        O  0.08732663  0.68918017  0.70233411    -0.73900
O302        O  0.12060057  0.68651454  0.76812497    -0.74000
Ni303      Ni  0.17378873  0.67932893  0.72416642     1.25400
Ni304      Ni  0.10231095  0.68821876  0.73554855     1.25400
C305        C  0.15903929  0.68192828  0.77411724     0.88300
C306        C  0.11389170  0.68507194  0.68592465     0.88200
C307        C  0.17390998  0.70560566  0.72823709     0.88200
C308        C  0.10466663  0.66171401  0.73215497     0.88400
O309        O  0.18052007  0.55919368  0.45244923    -0.73900
O310        O  0.14634864  0.55858687  0.51987875    -0.73900
O311        O  0.18852067  0.54243032  0.48912021    -0.74000
O312        O  0.14128626  0.57548116  0.48327246    -0.74000
O313        O  0.07263913  0.56794390  0.47413746    -0.74000
O314        O  0.12192320  0.53413502  0.47834406    -0.73900
O315        O  0.07946265  0.55042727  0.50921014    -0.73900
O316        O  0.11188039  0.55168731  0.44322898    -0.74000
Ni317      Ni  0.16661142  0.55916825  0.48659717     1.25400
Ni318      Ni  0.09410023  0.55070458  0.47594329     1.25400
C319        C  0.15063710  0.55587329  0.43679884     0.88300
C320        C  0.10637340  0.55462784  0.52535404     0.88200
C321        C  0.16391175  0.53285868  0.48422804     0.88200
C322        C  0.09984611  0.57725850  0.47755109     0.88400
O323        O  0.43091335  0.67972484  0.45549528    -0.73900
O324        O  0.46618696  0.68115596  0.52249189    -0.73900
O325        O  0.42542889  0.69714648  0.49106893    -0.74000
O326        O  0.46920872  0.66358808  0.48699991    -0.74000
O327        O  0.03818146  0.67044969  0.47670013    -0.74000
O328        O  0.49281706  0.70471758  0.47976221    -0.73900
O329        O  0.03402001  0.68844671  0.51119554    -0.73900
O330        O  0.99996737  0.68662127  0.44541129    -0.74000
Ni331      Ni  0.44551820  0.68017433  0.48945584     1.25400
Ni332      Ni  0.01869321  0.68787153  0.47796479     1.25400
C333        C  0.46054300  0.68270690  0.43949327     0.88300
C334        C  0.00661145  0.68482854  0.52763208     0.88200
C335        C  0.45098326  0.70643889  0.48557634     0.88200
C336        C  0.01024211  0.66139953  0.48090010     0.88400
O337        O  0.29812750  0.42873470  0.50597090    -0.73900
O338        O  0.33344802  0.43046490  0.43899693    -0.73900
O339        O  0.33864428  0.41295422  0.47452771    -0.74000
O340        O  0.29052110  0.44599511  0.47039188    -0.74000
O341        O  0.35670802  0.45426166  0.48195604    -0.74000
O342        O  0.40680851  0.42057340  0.48444514    -0.73900
O343        O  0.40008435  0.43857808  0.45026019    -0.73900
O344        O  0.36640298  0.43618893  0.51613445    -0.74000
Ni345      Ni  0.31280622  0.42927271  0.47203183     1.25400
Ni346      Ni  0.38490612  0.43773357  0.48352303     1.25400
C347        C  0.32733359  0.43199700  0.52200194     0.88300
C348        C  0.37318588  0.43467592  0.43381807     0.88200
C349        C  0.38008946  0.41123881  0.48033511     0.88200
C350        C  0.31477523  0.45553328  0.47598700     0.88400
O351        O  0.06518593  0.31108566  0.50443166    -0.73900
O352        O  0.03051772  0.30917892  0.43740406    -0.73900
O353        O  0.52427286  0.32667384  0.47285883    -0.74000
O354        O  0.07384415  0.29375403  0.46893537    -0.74000
O355        O  0.50784460  0.28538198  0.48053044    -0.74000
O356        O  0.45628039  0.31890097  0.48266809    -0.73900
O357        O  0.46415971  0.30086749  0.44861547    -0.73900
O358        O  0.49699340  0.30351332  0.51445886    -0.74000
Ni359      Ni  0.05085784  0.31043512  0.47046114     1.25400
Ni360      Ni  0.47894714  0.30181505  0.48186705     1.25400
C361        C  0.03580633  0.30784566  0.52039046     0.88300
C362        C  0.49083544  0.30493603  0.43222789     0.88200
C363        C  0.48270410  0.32829684  0.47858217     0.88200
C364        C  0.04991251  0.28418942  0.47475313     0.88400
O365        O  0.04938804  0.43102808  0.20171393    -0.73900
O366        O  0.01643589  0.43247611  0.26904745    -0.73900
O367        O  0.01089292  0.41500344  0.23343731    -0.74000
O368        O  0.05727570  0.44833783  0.23727421    -0.74000
O369        O  0.98997087  0.45625127  0.22670994    -0.74000
O370        O  0.44196221  0.42228036  0.22416714    -0.73900
O371        O  0.44885877  0.44022255  0.25852602    -0.73900
O372        O  0.98041053  0.43821080  0.19226996    -0.74000
Ni373      Ni  0.03591973  0.43146804  0.23577983     1.25400
Ni374      Ni  0.46288496  0.43956813  0.22511155     1.25400
C375        C  0.01946041  0.43415885  0.18599021     0.88300
C376        C  0.47650335  0.43637898  0.27465145     0.88200
C377        C  0.46934006  0.41307250  0.22808794     0.88200
C378        C  0.03208933  0.45774757  0.23213971     0.88400
O379        O  0.30772599  0.30985291  0.20171863    -0.73900
O380        O  0.34246702  0.30855808  0.26889064    -0.73900
O381        O  0.34598572  0.32607506  0.23331571    -0.74000
O382        O  0.30175428  0.29250963  0.23745021    -0.74000
O383        O  0.36918654  0.28489308  0.22627274    -0.74000
O384        O  0.41507891  0.31907560  0.22356024    -0.73900
O385        O  0.41013122  0.30107951  0.25776350    -0.73900
O386        O  0.37688414  0.30295547  0.19188254    -0.74000
Ni387      Ni  0.32202305  0.30948509  0.23576164     1.25400
Ni388      Ni  0.39521980  0.30169440  0.22453415     1.25400
C389        C  0.33751918  0.30684098  0.18579882     0.88300
C390        C  0.38272625  0.30477935  0.27413181     0.88200
C391        C  0.38734023  0.32817428  0.22776164     0.88200
C392        C  0.32739497  0.28320415  0.23218601     0.88400
O393        O  0.17953646  0.06030422  0.95674632    -0.73900
O394        O  0.14388072  0.05813584  0.02358466    -0.73900
O395        O  0.18642155  0.04269596  0.99181327    -0.74000
O396        O  0.13930019  0.07595138  0.98858948    -0.74000
O397        O  0.07097645  0.06857965  0.97830363    -0.74000
O398        O  0.11991822  0.03469924  0.98005175    -0.73900
O399        O  0.07693948  0.05032400  0.01204849    -0.73900
O400        O  0.11113980  0.05307559  0.94623835    -0.74000
Ni401      Ni  0.16467107  0.05952088  0.99062966     1.25400
Ni402      Ni  0.09233954  0.05134040  0.97881691     1.25400
C403        C  0.15034797  0.05725522  0.94055936     0.88300
C404        C  0.10390795  0.05405548  0.02860494     0.88200
C405        C  0.16180142  0.03326280  0.98603414     0.88200
C406        C  0.09794252  0.07782212  0.98278423     0.88400
O407        O  0.42909354  0.17971594  0.95922432    -0.73900
O408        O  0.96503874  0.18129242  0.02621175    -0.73900
O409        O  0.42143128  0.19695635  0.99510346    -0.74000
O410        O  0.97017633  0.16393384  0.99037456    -0.74000
O411        O  0.03819882  0.17164312  0.98042364    -0.74000
O412        O  0.98745841  0.20527537  0.98343842    -0.73900
O413        O  0.03138822  0.18954052  0.01483903    -0.73900
O414        O  0.99724347  0.18726016  0.94911062    -0.74000
Ni415      Ni  0.44402420  0.18022542  0.99319051     1.25400
Ni416      Ni  0.01592345  0.18878338  0.98164453     1.25400
C417        C  0.45840977  0.18290526  0.94319548     0.88300
C418        C  0.00496255  0.18540900  0.03128385     0.88200
C419        C  0.44550356  0.20651873  0.98941224     0.88200
C420        C  0.01159519  0.16226742  0.98444351     0.88400
O421        O  0.48450475  0.03498066  0.23644685    -0.73900
O422        O  0.03822901  0.06824109  0.23730623    -0.73900
O423        O  0.49778022  0.05319083  0.27008898    -0.74000
O424        O  0.52747157  0.05007065  0.20377484    -0.74000
O425        O  0.46116399  0.05862984  0.19326546    -0.74000
O426        O  0.42982786  0.06110706  0.26069995    -0.73900
O427        O  0.47040856  0.07633981  0.22820777    -0.73900
O428        O  0.41839936  0.04358600  0.22574298    -0.74000
Ni429      Ni  0.51434895  0.05127152  0.23721124     1.25400
Ni430      Ni  0.44254309  0.06019219  0.22658153     1.25400
C431        C  0.44218559  0.03392954  0.23116455     0.88300
C432        C  0.51241160  0.07775868  0.23316256     0.88200
C433        C  0.45945337  0.05773018  0.27640416     0.88200
C434        C  0.50026583  0.05413689  0.18764200     0.88400
O435        O  0.19415031  0.17879910  0.26043811    -0.73900
O436        O  0.15785753  0.18032754  0.19352188    -0.73900
O437        O  0.20153079  0.19604741  0.22462751    -0.74000
O438        O  0.15272810  0.16291302  0.22918016    -0.74000
O439        O  0.08483995  0.17067299  0.23923373    -0.74000
O440        O  0.13530949  0.20426344  0.23629763    -0.73900
O441        O  0.09153890  0.18853560  0.20505096    -0.73900
O442        O  0.12604964  0.18631230  0.27074869    -0.74000
Ni443      Ni  0.17900855  0.17925550  0.22651481     1.25400
Ni444      Ni  0.10712136  0.18777985  0.23819716     1.25400
C445        C  0.16515405  0.18213012  0.27654306     0.88300
C446        C  0.11794133  0.18446649  0.18853179     0.88200
C447        C  0.17711127  0.20557917  0.23009840     0.88200
C448        C  0.11108341  0.16128384  0.23476336     0.88400
C449        C  0.02878726  0.11035744  0.23511625     0.30300
C450        C  0.01512925  0.12303500  0.23561744    -0.36000
C451        C  0.05013994  0.13196903  0.23604794     0.16300
C452        C  0.09542629  0.12862033  0.23572177     0.22100
C453        C  0.10909168  0.11593108  0.23541933    -0.34200
C454        C  0.07405605  0.10698723  0.23524588     0.16200
O455        O  0.50167949  0.10051213  0.23437917    -0.26200
C456        C  0.02980128  0.09069297  0.23424479     0.06000
C457        C  0.07535465  0.09411238  0.23483927    -0.31100
O458        O  0.12246993  0.13849848  0.23545039    -0.22900
C459        C  0.09422278  0.14829424  0.23584698    -0.02900
C460        C  0.04872570  0.14483046  0.23631545    -0.17300
H461        H  0.47968657  0.12573241  0.23556320     0.20700
H462        H  0.14453240  0.11323534  0.23520799     0.19100
H463        H  0.10488771  0.08803482  0.23464653     0.19000
H464        H  0.01912127  0.15088262  0.23627592     0.14900
C465        C  0.02573525  0.18449868  0.09360025     0.30300
C466        C  0.01536750  0.18454567  0.11826154    -0.36000
C467        C  0.05263477  0.18437216  0.13401641     0.16300
C468        C  0.09713307  0.18393439  0.12620068     0.22100
C469        C  0.10750920  0.18397274  0.10153776    -0.34200
C470        C  0.07025884  0.18438927  0.08578178     0.16200
O471        O  0.99628312  0.18477995  0.07562759    -0.26200
C472        C  0.02244196  0.18505461  0.05608862     0.06000
C473        C  0.06864051  0.18484922  0.06135889    -0.31100
O474        O  0.12658692  0.18377277  0.14418102    -0.22900
C475        C  0.10047360  0.18429827  0.16372019    -0.02900
C476        C  0.05429745  0.18469837  0.15843976    -0.17300
H477        H  0.98070637  0.18483519  0.12472998     0.20700
H478        H  0.14218383  0.18383356  0.09507253     0.19100
H479        H  0.09694810  0.18491724  0.04890623     0.19000
H480        H  0.02601291  0.18511620  0.17088288     0.14900
C481        C  0.51682514  0.05430552  0.12494203     0.30300
C482        C  0.50495899  0.05456875  0.10046522    -0.36000
C483        C  0.04123636  0.05412738  0.08404849     0.16300
C484        C  0.08616144  0.05368866  0.09112526     0.22100
C485        C  0.09797417  0.05327261  0.11556064    -0.34200
C486        C  0.06171822  0.05350107  0.13194176     0.16200
O487        O  0.48859407  0.05469386  0.14347253    -0.26200
C488        C  0.51592861  0.05393289  0.16250210     0.06000
C489        C  0.06163369  0.05314278  0.15635877    -0.31100
O490        O  0.11459205  0.05366374  0.07270559    -0.22900
C491        C  0.08741822  0.05389831  0.05358903    -0.02900
C492        C  0.04151611  0.05414463  0.05957220    -0.17300
H493        H  0.46995184  0.05506689  0.09461853     0.20700
H494        H  0.13298364  0.05279295  0.12140981     0.19100
H495        H  0.09068290  0.05257941  0.16825615     0.19000
H496        H  0.51258861  0.05449224  0.04756309     0.14900
C497        C  0.08690977  0.11058571  0.98002371     0.30300
C498        C  0.10250157  0.12310667  0.98008120    -0.36000
C499        C  0.06887249  0.13244665  0.98006049     0.16300
C500        C  0.02313987  0.12959156  0.98010675     0.22100
C501        C  0.00756238  0.11707999  0.97963945    -0.34200
C502        C  0.04117509  0.10774609  0.97955923     0.16200
O503        O  0.11240424  0.10042291  0.98106843    -0.26200
C504        C  0.08273838  0.09094695  0.98107418     0.06000
C505        C  0.03781749  0.09490404  0.98002029    -0.31100
O506        O  0.99756782  0.13972274  0.98141788    -0.22900
C507        C  0.02714052  0.14920889  0.98202932    -0.02900
C508        C  0.07213011  0.14529148  0.98106520    -0.17300
H509        H  0.13831064  0.12539014  0.98060725     0.20700
H510        H  0.47174235  0.11479435  0.97983669     0.09500
H511        H  0.50734102  0.08919188  0.98023908     0.19000
H512        H  0.10254850  0.15101610  0.98179039     0.14900
C513        C  0.25018696  0.23156630  0.22592914     0.30300
C514        C  0.29156543  0.23776766  0.22149548    -0.36000
C515        C  0.29275202  0.25068884  0.22705324     0.16300
C516        C  0.25562106  0.25700808  0.23625317     0.22100
C517        C  0.21431062  0.25081857  0.24066709    -0.34200
C518        C  0.21313725  0.23792007  0.23513102     0.16200
O519        O  0.24185795  0.21947847  0.22254642    -0.26200
C520        C  0.19890965  0.21806125  0.22958928     0.06000
C521        C  0.17920784  0.22923462  0.23756300    -0.31100
O522        O  0.26369289  0.26908561  0.23966525    -0.22900
C523        C  0.30658065  0.27059386  0.23266534    -0.02900
C524        C  0.32658343  0.25944990  0.22466587    -0.17300
H525        H  0.32077018  0.23285172  0.21427023     0.20700
H526        H  0.18509776  0.25573650  0.24788066     0.19100
H527        H  0.14535030  0.23067071  0.24463936     0.19000
H528        H  0.36046602  0.25808693  0.21757428     0.14900
C529        C  0.45938854  0.38029073  0.22524955     0.30300
C530        C  0.47558742  0.36784200  0.22497998    -0.36000
C531        C  0.44245319  0.35836829  0.22499097     0.16300
C532        C  0.39657602  0.36101226  0.22543129     0.22100
C533        C  0.38035485  0.37347221  0.22542272    -0.34200
C534        C  0.41351661  0.38295444  0.22523264     0.16200
O535        O  0.98447278  0.39053896  0.22605042    -0.26200
C536        C  0.45444385  0.39991245  0.22635699     0.06000
C537        C  0.40963867  0.39579552  0.22574884    -0.31100
O538        O  0.37160091  0.35073344  0.22629033    -0.22900
C539        C  0.40176637  0.34138274  0.22619181    -0.02900
C540        C  0.44647680  0.34554168  0.22529475    -0.17300
H541        H  0.01151996  0.36570493  0.22506510     0.20700
H542        H  0.34442957  0.37560950  0.22584026     0.19100
H543        H  0.37893978  0.40140354  0.22625292     0.19000
H544        H  0.47725324  0.33996141  0.22543309     0.14900
C545        C  0.47185001  0.30526066  0.36980571     0.30300
C546        C  0.48299102  0.30517377  0.34525349    -0.36000
C547        C  0.44621831  0.30503497  0.32919306     0.16300
C548        C  0.40145667  0.30518484  0.33661851     0.22100
C549        C  0.39031158  0.30515344  0.36118071    -0.34200
C550        C  0.42709647  0.30508880  0.37724842     0.16200
O551        O  0.50075816  0.30533410  0.38801473    -0.26200
C552        C  0.47403233  0.30501352  0.40732319     0.06000
C553        C  0.42800051  0.30483523  0.40168355    -0.31100
O554        O  0.37257688  0.30521275  0.31838415    -0.22900
C555        C  0.39935715  0.30491111  0.29908631    -0.02900
C556        C  0.44537112  0.30475628  0.30476884    -0.17300
H557        H  0.01786360  0.30514532  0.33908840     0.20700
H558        H  0.35544031  0.30511005  0.36734636     0.19100
H559        H  0.39933940  0.30465701  0.41390211     0.19000
H560        H  0.47407883  0.30458360  0.29258048     0.14900
C561        C  0.45976648  0.43553584  0.33733297     0.30300
C562        C  0.47173240  0.43527522  0.36179351    -0.36000
C563        C  0.43549085  0.43520535  0.37824627     0.16300
C564        C  0.39051082  0.43517754  0.37122546     0.22100
C565        C  0.37856233  0.43557780  0.34679113    -0.34200
C566        C  0.41477867  0.43584846  0.33036223     0.16200
O567        O  0.48801451  0.43561798  0.31880029    -0.26200
C568        C  0.46061344  0.43617476  0.29977409     0.06000
C569        C  0.41480742  0.43636851  0.30593184    -0.31100
O570        O  0.36218547  0.43486916  0.38969503    -0.22900
C571        C  0.38947397  0.43487334  0.40878011    -0.02900
C572        C  0.43534240  0.43511817  0.40272008    -0.17300
H573        H  0.00680577  0.43517403  0.36760497     0.20700
H574        H  0.34348949  0.43570971  0.34098111     0.19100
H575        H  0.38570136  0.43668198  0.29403977     0.19000
H576        H  0.46436959  0.43510624  0.41468125     0.14900
C577        C  0.42351035  0.35684715  0.48319849     0.30300
C578        C  0.38574112  0.36486239  0.48396706    -0.36000
C579        C  0.39529980  0.37782619  0.48384824     0.16300
C580        C  0.43891735  0.38262793  0.48335260     0.22100
C581        C  0.47664292  0.37461878  0.48266553    -0.34200
C582        C  0.46707593  0.36167034  0.48245091     0.16200
O583        O  0.42266864  0.34439615  0.48224422    -0.26200
C584        C  0.46628944  0.34128759  0.48068003     0.06000
C585        C  0.49532506  0.35163685  0.48076200    -0.31100
O586        O  0.43982847  0.39506994  0.48256136    -0.22900
C587        C  0.39619766  0.39822645  0.48234485    -0.02900
C588        C  0.36703021  0.38790457  0.48317337    -0.17300
H589        H  0.35133938  0.36126049  0.48408347     0.20700
H590        H  0.01100144  0.37822303  0.48178750     0.19100
H591        H  0.03201001  0.35173515  0.47950299     0.19000
H592        H  0.33027266  0.38785334  0.48286598     0.14900
C593        C  0.20042982  0.50148582  0.47787000     0.30300
C594        C  0.19876431  0.48888924  0.47017988    -0.36000
C595        C  0.23864753  0.48185309  0.47342917     0.16300
C596        C  0.27761643  0.48677060  0.48360449     0.22100
C597        C  0.27926557  0.49936455  0.49133442    -0.34200
C598        C  0.23939070  0.50641042  0.48804516     0.16200
O599        O  0.16763175  0.50993986  0.47581849    -0.26200
C600        C  0.18594970  0.52040401  0.48484566     0.06000
C601        C  0.23040588  0.51871879  0.49276204    -0.31100
O602        O  0.31061095  0.47835283  0.48532188    -0.22900
C603        C  0.29238043  0.46793227  0.47605602    -0.02900
C604        C  0.24780467  0.46960056  0.46835299    -0.17300
H605        H  0.16860184  0.48486652  0.46210015     0.20700
H606        H  0.30951109  0.50340477  0.49929459     0.19100
H607        H  0.25334322  0.52569855  0.50019198     0.19000
H608        H  0.22499101  0.46265765  0.46069337     0.14900
C609        C  0.06370572  0.63204409  0.47415655     0.30300
C610        C  0.09984996  0.62355450  0.47177396    -0.36000
C611        C  0.08828658  0.61072212  0.47247572     0.16300
C612        C  0.04422524  0.60644442  0.47502119     0.22100
C613        C  0.00804170  0.61493913  0.47726502    -0.34200
C614        C  0.01967730  0.62777631  0.47688318     0.16200
O615        O  0.06678839  0.64447730  0.47498875    -0.26200
C616        C  0.02414908  0.64816684  0.47845919     0.06000
C617        C  0.99351185  0.63818620  0.47973566    -0.31100
O618        O  0.04165187  0.59401196  0.47638312    -0.22900
C619        C  0.08472254  0.59035472  0.47486695    -0.02900
C620        C  0.11504394  0.60033550  0.47232390    -0.17300
H621        H  0.13467021  0.62671800  0.47014664     0.20700
H622        H  0.47341976  0.61177396  0.47980722     0.19100
H623        H  0.45717063  0.63856398  0.48259330     0.19000
H624        H  0.15173324  0.59998222  0.47128100     0.14900
C625        C  0.09519295  0.68444477  0.62346171     0.30300
C626        C  0.10649485  0.68408046  0.59893232    -0.36000
C627        C  0.06987346  0.68436825  0.58277975     0.16300
C628        C  0.02508448  0.68476555  0.59012240     0.22100
C629        C  0.01379212  0.68524488  0.61465277    -0.34200
C630        C  0.05045448  0.68516994  0.63079999     0.16200
O631        O  0.12395119  0.68427084  0.64173451    -0.26200
C632        C  0.09718935  0.68507993  0.66098099     0.06000
C633        C  0.05124298  0.68569635  0.65523127    -0.31100
O634        O  0.99633711  0.68484211  0.57183802    -0.22900
C635        C  0.02323445  0.68467169  0.55258117    -0.02900
C636        C  0.06920508  0.68439291  0.55833402    -0.17300
H637        H  0.14138671  0.68367531  0.59284990     0.20700
H638        H  0.97890964  0.68572283  0.62073186     0.19100
H639        H  0.02253936  0.68626971  0.66737808     0.19000
H640        H  0.09796949  0.68417084  0.54618661     0.14900
C641        C  0.01366631  0.55587659  0.62021153     0.30300
C642        C  0.00361152  0.55581037  0.59552520    -0.36000
C643        C  0.04105896  0.55560829  0.57987158     0.16300
C644        C  0.08551717  0.55568444  0.58776558     0.22100
C645        C  0.09558404  0.55564520  0.61247743    -0.34200
C646        C  0.05809075  0.55563353  0.62815105     0.16200
O647        O  0.98395106  0.55598574  0.63809832    -0.26200
C648        C  0.00979600  0.55562714  0.65773695     0.06000
C649        C  0.05607683  0.55536537  0.65258730    -0.31100
O650        O  0.11514537  0.55552646  0.56981215    -0.22900
C651        C  0.08910332  0.55516877  0.55022923    -0.02900
C652        C  0.04288208  0.55519061  0.55547244    -0.17300
H653        H  0.96901308  0.55580845  0.58895834     0.20700
H654        H  0.13017892  0.55551726  0.61904321     0.19100
H655        H  0.08420797  0.55513467  0.66512789     0.19000
H656        H  0.01463506  0.55495662  0.54300189     0.14900
C657        C  0.04375621  0.63333791  0.73429032     0.30300
C658        C  0.00568331  0.62543354  0.73308003    -0.36000
C659        C  0.01469319  0.61243602  0.73297135     0.16300
C660        C  0.05802292  0.60749537  0.73430513     0.22100
C661        C  0.09604550  0.61539308  0.73558421    -0.34200
C662        C  0.08708375  0.62837916  0.73535305     0.16200
O663        O  0.04358425  0.64579871  0.73354580    -0.26200
C664        C  0.08742790  0.64878097  0.73393663     0.06000
C665        C  0.11591209  0.63833726  0.73509442    -0.31100
O666        O  0.05851472  0.59504701  0.73337161    -0.22900
C667        C  0.01492292  0.59202234  0.73121758    -0.02900
C668        C  0.98619599  0.60244523  0.73090089    -0.17300
H669        H  0.47153526  0.62914477  0.73175865     0.20700
H670        H  0.13026990  0.61168401  0.73616437     0.19100
H671        H  0.15266335  0.63813016  0.73527995     0.19000
H672        H  0.44958840  0.60261626  0.72915971     0.14900
C673        C  0.23682054  0.00774660  0.98887261     0.30300
C674        C  0.27893164  0.00193102  0.99301465    -0.36000
C675        C  0.28187183  0.98913587  0.98680241     0.16300
C676        C  0.24569699  0.98254837  0.97723201     0.22100
C677        C  0.20356047  0.98837751  0.97303416    -0.34200
C678        C  0.20061017  0.00118869  0.97926471     0.16200
O679        O  0.22709505  0.01967019  0.99294757    -0.26200
C680        C  0.18406878  0.02084069  0.98596102     0.06000
C681        C  0.16561972  0.00962147  0.97730282    -0.31100
O682        O  0.25542614  0.97058207  0.97347667    -0.22900
C683        C  0.29840166  0.96946131  0.98063628    -0.02900
C684        C  0.31678264  0.98072798  0.98903728    -0.17300
H685        H  0.30739391  0.00703909  0.00058305     0.20700
H686        H  0.17504235  0.98325659  0.96555777     0.19100
H687        H  0.13200345  0.00801469  0.97005284     0.19000
H688        H  0.35026769  0.98237008  0.99643004     0.14900
C689        C  0.46651418  0.86157207  0.98415294     0.30300
C690        C  0.48115901  0.87417348  0.98482203    -0.36000
C691        C  0.44686923  0.88329694  0.98627912     0.16300
C692        C  0.40136679  0.88018054  0.98679475     0.22100
C693        C  0.38673968  0.86758114  0.98635771    -0.34200
C694        C  0.42103167  0.85846095  0.98510475     0.16200
O695        O  0.49274306  0.85157290  0.98243158    -0.26200
C696        C  0.46378803  0.84193164  0.98246149     0.06000
C697        C  0.41863015  0.84561771  0.98415987    -0.31100
O698        O  0.37501893  0.89018411  0.98713248    -0.22900
C699        C  0.40389229  0.89984338  0.98706339    -0.02900
C700        C  0.44916652  0.89616137  0.98665710    -0.17300
H701        H  0.51675816  0.87667974  0.98404625     0.20700
H702        H  0.35110863  0.86508148  0.98672172     0.19100
H703        H  0.38859962  0.83972498  0.98436530     0.19000
H704        H  0.47912211  0.90207132  0.98593809     0.14900
C705        C  0.28651469  0.75197733  0.72953869     0.30300
C706        C  0.29035301  0.73906483  0.72434009    -0.36000
C707        C  0.25034887  0.73195298  0.72660393     0.16300
C708        C  0.20933996  0.73711432  0.73358487     0.22100
C709        C  0.20553084  0.75000803  0.73883234    -0.34200
C710        C  0.24547508  0.75711616  0.73652278     0.16200
O711        O  0.31921977  0.76049994  0.72806462    -0.26200
C712        C  0.29868475  0.77120973  0.73424479     0.06000
C713        C  0.25290283  0.76963042  0.73972031    -0.31100
O714        O  0.17642825  0.72865799  0.73476006    -0.22900
C715        C  0.19669175  0.71795128  0.72836389    -0.02900
C716        C  0.24260756  0.71945917  0.72308286    -0.17300
H717        H  0.32218818  0.73486500  0.71879429     0.20700
H718        H  0.17364706  0.75421864  0.74427018     0.19100
H719        H  0.22836902  0.77675518  0.74484429     0.19000
H720        H  0.26694349  0.71231512  0.71779679     0.14900
C721        C  0.43733726  0.80511608  0.83087772     0.30300
C722        C  0.47664683  0.80539042  0.84518358    -0.36000
C723        C  0.46965389  0.80557079  0.87016208     0.16300
C724        C  0.42685717  0.80530238  0.88027940     0.22100
C725        C  0.38752158  0.80520945  0.86596370    -0.34200
C726        C  0.39450938  0.80521360  0.84097075     0.16200
O727        O  0.43614073  0.80481142  0.80719051    -0.26200
C728        C  0.39204527  0.80487853  0.80194334     0.06000
C729        C  0.36437326  0.80519431  0.82224635    -0.31100
O730        O  0.42813844  0.80517834  0.90398246    -0.22900
C731        C  0.47225239  0.80552636  0.90918254    -0.02900
C732        C  0.49981908  0.80585654  0.88884710    -0.17300
H733        H  0.51031743  0.80544200  0.83736288     0.20700
H734        H  0.35385216  0.80512306  0.87378393     0.19100
H735        H  0.32766025  0.80523993  0.82306628     0.19000
H736        H  0.53652164  0.80607622  0.88798406     0.14900
C737        C  0.39976589  0.93406681  0.87732498     0.30300
C738        C  0.38924260  0.93281427  0.85282242    -0.36000
C739        C  0.42617470  0.93331628  0.83687941     0.16300
C740        C  0.47059467  0.93473553  0.84439265     0.22100
C741        C  0.48108078  0.93607997  0.86888901    -0.34200
C742        C  0.44406461  0.93578355  0.88480404     0.16200
O743        O  0.37061687  0.93390264  0.89543723    -0.26200
C744        C  0.39668473  0.93570561  0.91469183     0.06000
C745        C  0.44253892  0.93696336  0.90911473    -0.31100
O746        O  0.49969558  0.93500880  0.82625383    -0.22900
C747        C  0.47331623  0.93391978  0.80692539    -0.02900
C748        C  0.42741518  0.93284391  0.81248233    -0.17300
H749        H  0.35467301  0.93164786  0.84659250     0.20700
H750        H  0.51559452  0.93739214  0.87510073     0.19100
H751        H  0.47077494  0.93835448  0.92131797     0.19000
H752        H  0.39902404  0.93192767  0.80021804     0.14900
C753        C  0.42916831  0.88236545  0.72938579     0.30300
C754        C  0.39198989  0.87422118  0.72734991    -0.36000
C755        C  0.40205761  0.86131220  0.72781922     0.16300
C756        C  0.44567158  0.85664363  0.72987732     0.22100
C757        C  0.48293958  0.86480245  0.73189427    -0.34200
C758        C  0.47280352  0.87773823  0.73167821     0.16200
O759        O  0.42747016  0.89479852  0.73002529    -0.26200
C760        C  0.47057351  0.89815319  0.73290371     0.06000
C761        C  0.50024344  0.88794786  0.73404009    -0.31100
O762        O  0.44683049  0.84418631  0.73055458    -0.22900
C763        C  0.40332186  0.84092847  0.72907626    -0.02900
C764        C  0.37409018  0.85118101  0.72731778    -0.17300
H765        H  0.35753912  0.87769868  0.72593301     0.20700
H766        H  0.51727930  0.86132335  0.73392086     0.19100
H767        H  0.03672272  0.88805748  0.73643425     0.19000
H768        H  0.33738399  0.85115370  0.72624547     0.14900
C769        C  0.44383444  0.68099688  0.33346837     0.30300
C770        C  0.47722345  0.68063649  0.35139536    -0.36000
C771        C  0.46134675  0.68072108  0.37519833     0.16300
C772        C  0.41578816  0.68092527  0.38111869     0.22100
C773        C  0.38237034  0.68127680  0.36317347    -0.34200
C774        C  0.39827645  0.68141246  0.33935099     0.16200
O775        O  0.45099543  0.68148800  0.31001241    -0.26200
C776        C  0.40945403  0.68236861  0.30083687     0.06000
C777        C  0.37541361  0.68236391  0.31822387    -0.31100
O778        O  0.40882933  0.68134601  0.40462117    -0.22900
C779        C  0.45055580  0.68154806  0.41373177    -0.02900
C780        C  0.48442840  0.68115766  0.39628184    -0.17300
H781        H  0.01308339  0.68060629  0.34710715     0.20700
H782        H  0.34655534  0.68173387  0.36747154     0.19100
H783        H  0.33907671  0.68308313  0.31562789     0.19000
H784        H  0.02087034  0.68139296  0.39881069     0.14900
C785        C  0.16035389  0.55947452  0.33053934     0.30300
C786        C  0.12817337  0.55878438  0.34907375    -0.36000
C787        C  0.14562208  0.55838817  0.37256400     0.16300
C788        C  0.19148964  0.55885955  0.37767373     0.22100
C789        C  0.22369025  0.55953750  0.35912834    -0.34200
C790        C  0.20626515  0.55972717  0.33560776     0.16200
O791        O  0.15181345  0.55933132  0.30717279    -0.26200
C792        C  0.19287989  0.55936681  0.29723588     0.06000
C793        C  0.22790268  0.55962599  0.31404887    -0.31100
O794        O  0.20005740  0.55818927  0.40101861    -0.22900
C795        C  0.15906188  0.55712586  0.41085137    -0.02900
C796        C  0.12408546  0.55719469  0.39400654    -0.17300
H797        H  0.09211012  0.55829404  0.34543317     0.20700
H798        H  0.25980175  0.55963111  0.36274075     0.19100
H799        H  0.26414854  0.55947342  0.31079709     0.19000
H800        H  0.08790604  0.55643453  0.39716393     0.14900
C801        C  0.11123010  0.50908505  0.22463649     0.30300
C802        C  0.06877926  0.50315088  0.22229559    -0.36000
C803        C  0.06788170  0.49015164  0.22698593     0.16300
C804        C  0.10623618  0.48351735  0.23353663     0.22100
C805        C  0.14865518  0.48945241  0.23589898    -0.34200
C806        C  0.14956766  0.50244132  0.23117577     0.16200
O807        O  0.11959264  0.52116007  0.22136401    -0.26200
C808        C  0.16384042  0.52231177  0.22579830     0.06000
C809        C  0.18440914  0.51095743  0.23199830    -0.31100
O810        O  0.09802692  0.47142484  0.23661903    -0.22900
C811        C  0.05386621  0.47023296  0.23202827    -0.02900
C812        C  0.03316851  0.48159231  0.22593943    -0.17300
H813        H  0.03861304  0.50831436  0.21713766     0.20700
H814        H  0.17884921  0.48428178  0.24098294     0.19100
H815        H  0.21949683  0.50928171  0.23680813     0.19000
H816        H  0.99812904  0.48323856  0.22099513     0.14900
C817        C  0.30771633  0.60811407  0.23388379     0.30300
C818        C  0.34509982  0.61624679  0.23545759    -0.36000
C819        C  0.33512970  0.62918693  0.23532200     0.16300
C820        C  0.29143901  0.63387578  0.23404803     0.22100
C821        C  0.25403654  0.62574064  0.23253983    -0.34200
C822        C  0.26405253  0.61280062  0.23236677     0.16200
O823        O  0.30912703  0.59566211  0.23297870    -0.26200
C824        C  0.26577575  0.59238221  0.23068050     0.06000
C825        C  0.23632565  0.60264752  0.23021881    -0.31100
O826        O  0.29024474  0.64633566  0.23346044    -0.22900
C827        C  0.33380388  0.64961199  0.23417819    -0.02900
C828        C  0.36313083  0.63934259  0.23539386    -0.17300
H829        H  0.37958998  0.61274483  0.23624074     0.20700
H830        H  0.21962567  0.62924610  0.23110197     0.19100
H831        H  0.19972290  0.60261402  0.22842352     0.19000
H832        H  0.39988154  0.63937456  0.23581500     0.14900
C833        C  0.17097146  0.67978373  0.88029012     0.30300
C834        C  0.13851443  0.67952537  0.86189058    -0.36000
C835        C  0.15556576  0.67947112  0.83831960     0.16300
C836        C  0.20138770  0.67944058  0.83300102     0.22100
C837        C  0.23392786  0.67964819  0.85143875    -0.34200
C838        C  0.21683279  0.67993352  0.87505660     0.16200
O839        O  0.16258693  0.68054443  0.90361796    -0.26200
C840        C  0.20365319  0.68132550  0.91340156     0.06000
C841        C  0.23860167  0.68097421  0.89651450    -0.31100
O842        O  0.20943838  0.67993134  0.80957276    -0.22900
C843        C  0.16812265  0.68041732  0.79993904    -0.02900
C844        C  0.13350721  0.68012468  0.81696673    -0.17300
H845        H  0.10245982  0.67975140  0.86566340     0.20700
H846        H  0.26996626  0.67997048  0.84765035     0.19100
H847        H  0.27481573  0.68161325  0.89962953     0.19000
H848        H  0.09722293  0.68064148  0.81400308     0.14900
C849        C  0.11766253  0.75848206  0.97495384     0.30300
C850        C  0.15968446  0.75239539  0.97200723    -0.36000
C851        C  0.16052280  0.73947271  0.97743671     0.16300
C852        C  0.12247862  0.73303282  0.98515091     0.22100
C853        C  0.08046009  0.73911293  0.98806773    -0.34200
C854        C  0.07964054  0.75203281  0.98267231     0.16200
O855        O  0.10958205  0.77055966  0.97146537    -0.26200
C856        C  0.06582480  0.77190282  0.97694561     0.06000
C857        C  0.04530485  0.76067342  0.98401992    -0.31100
O858        O  0.13062454  0.72098673  0.98890974    -0.22900
C859        C  0.17446029  0.71963725  0.98362523    -0.02900
C860        C  0.19497559  0.73084253  0.97638426    -0.17300
H861        H  0.18965100  0.75740753  0.96600943     0.20700
H862        H  0.05053733  0.73411223  0.99416300     0.19100
H863        H  0.01064828  0.75917364  0.98984700     0.19000
H864        H  0.22974426  0.73234313  0.97075233     0.14900
C865        C  0.31007051  0.68625584  0.08265716     0.30300
C866        C  0.34910205  0.68582008  0.09715206    -0.36000
C867        C  0.34166760  0.68595312  0.12209084     0.16300
C868        C  0.29874562  0.68666870  0.13198322     0.22100
C869        C  0.25968857  0.68694252  0.11748771    -0.34200
C870        C  0.26709007  0.68661370  0.09254798     0.16200
O871        O  0.30926622  0.68626349  0.05896351    -0.26200
C872        C  0.26525958  0.68646402  0.05353221     0.06000
C873        C  0.23725666  0.68661878  0.07370424    -0.31100
O874        O  0.29960050  0.68692244  0.15567734    -0.22900
C875        C  0.34353924  0.68621064  0.16110102    -0.02900
C876        C  0.37144163  0.68552396  0.14092808    -0.17300
H877        H  0.38287537  0.68538442  0.08949996     0.20700
H878        H  0.22591361  0.68735313  0.12514074     0.19100
H879        H  0.20054054  0.68684203  0.07435879     0.19000
H880        H  0.40810487  0.68492621  0.14026525     0.14900
C881        C  0.39348506  0.55964939  0.87370035     0.30300
C882        C  0.37222562  0.55989980  0.85105113    -0.36000
C883        C  0.40121620  0.56036566  0.83103466     0.16300
C884        C  0.44787653  0.56043718  0.83329413     0.22100
C885        C  0.46910692  0.56042298  0.85593384    -0.34200
C886        C  0.44012375  0.56007583  0.87593633     0.16200
O887        O  0.37296199  0.55868001  0.89467585    -0.26200
C888        C  0.40675818  0.55863068  0.91059620     0.06000
C889        C  0.44941500  0.55955426  0.90001770    -0.31100
O890        O  0.46855926  0.56002596  0.81232030    -0.22900
C891        C  0.43488273  0.55984556  0.79634477    -0.02900
C892        C  0.39207158  0.56014758  0.80688995    -0.17300
H893        H  0.33567805  0.55949678  0.84917739     0.20700
H894        H  0.50568861  0.56040796  0.85778887     0.19100
H895        H  0.48229169  0.55947001  0.90872047     0.19000
H896        H  0.35928775  0.55969431  0.79813130     0.14900
C897        C  0.29250523  0.55503960  0.07883281     0.30300
C898        C  0.25298206  0.55557882  0.09300943    -0.36000
C899        C  0.25961496  0.55570024  0.11803629     0.16300
C900        C  0.30225504  0.55513028  0.12826699     0.22100
C901        C  0.34174971  0.55476162  0.11410612    -0.34200
C902        C  0.33514834  0.55482947  0.08911019     0.16200
O903        O  0.29415115  0.55478451  0.05513232    -0.26200
C904        C  0.33837144  0.55457026  0.05011537     0.06000
C905        C  0.36562613  0.55465446  0.07055532    -0.31100
O906        O  0.30074546  0.55504115  0.15194475    -0.22900
C907        C  0.25666387  0.55571485  0.15708100    -0.02900
C908        C  0.22928209  0.55621752  0.13668568    -0.17300
H909        H  0.21944826  0.55588592  0.08506579     0.20700
H910        H  0.37528326  0.55444974  0.12205091     0.19100
H911        H  0.40231599  0.55448375  0.07156824     0.19000
H912        H  0.19262228  0.55670360  0.13575919     0.14900
C913        C  0.27142186  0.62974242  0.98070544     0.30300
C914        C  0.25605288  0.61720293  0.98044015    -0.36000
C915        C  0.28978837  0.60791487  0.97912629     0.16300
C916        C  0.33545916  0.61081648  0.97836845     0.22100
C917        C  0.35080746  0.62335835  0.97838544    -0.34200
C918        C  0.31705552  0.63264711  0.97950498     0.16200
O919        O  0.24577089  0.63986698  0.98218234    -0.26200
C920        C  0.27522878  0.64939014  0.98176371     0.06000
C921        C  0.32016441  0.64549445  0.98003343    -0.31100
O922        O  0.36120397  0.60068316  0.97811416    -0.22900
C923        C  0.33174523  0.59115924  0.97848133    -0.02900
C924        C  0.28671398  0.59506209  0.97899983    -0.17300
H925        H  0.22032075  0.61486273  0.98137364     0.20700
H926        H  0.38656773  0.62569577  0.97778463     0.19100
H927        H  0.35050025  0.65125788  0.97948916     0.19000
H928        H  0.25640315  0.58929853  0.97984367     0.14900
C929        C  0.41585610  0.18052805  0.88433315     0.30300
C930        C  0.38342390  0.18096514  0.86587707    -0.36000
C931        C  0.40053847  0.18064994  0.84227375     0.16300
C932        C  0.44628386  0.17974178  0.83704138     0.22100
C933        C  0.47866343  0.17926770  0.85548073    -0.34200
C934        C  0.46162336  0.17980781  0.87905224     0.16200
O935        O  0.40784433  0.18138812  0.90772634    -0.26200
C936        C  0.44915420  0.18136110  0.91739295     0.06000
C937        C  0.48372061  0.18037555  0.90041766    -0.31100
O938        O  0.45471185  0.18002393  0.81365956    -0.22900
C939        C  0.41378771  0.18126321  0.80386423    -0.02900
C940        C  0.37892998  0.18167364  0.82079942    -0.17300
H941        H  0.34749568  0.18186075  0.86962437     0.20700
H942        H  0.51470536  0.17888292  0.85172409     0.19100
H943        H  0.02004056  0.18034026  0.90342459     0.19000
H944        H  0.34286461  0.18278906  0.81769450     0.14900
C945        C  0.20564577  0.05966600  0.83818062     0.30300
C946        C  0.22571274  0.05967870  0.86110858    -0.36000
C947        C  0.19569002  0.05971999  0.88068484     0.16300
C948        C  0.14914593  0.05962685  0.87779991     0.22100
C949        C  0.12907330  0.05986862  0.85486857    -0.34200
C950        C  0.15911226  0.05994232  0.83528663     0.16200
O951        O  0.22731138  0.05898172  0.81749989    -0.26200
C952        C  0.19436779  0.05897605  0.80110536     0.06000
C953        C  0.15112648  0.05965421  0.81106602    -0.31100
O954        O  0.12749074  0.05887727  0.89847887    -0.22900
C955        C  0.16048571  0.05863851  0.91484604    -0.02900
C956        C  0.20371775  0.05923534  0.90487864    -0.17300
H957        H  0.26216800  0.05939248  0.86349496     0.20700
H958        H  0.09260698  0.05972603  0.85247645     0.19100
H959        H  0.11873028  0.05947435  0.80187429     0.19000
H960        H  0.23612426  0.05888315  0.91403932     0.14900
C961        C  0.15487988  0.00293509  0.73775063     0.30300
C962        C  0.15726709  0.99046710  0.74600268    -0.36000
C963        C  0.11782585  0.98321393  0.74310228     0.16300
C964        C  0.07856166  0.98780407  0.73273513     0.22100
C965        C  0.07612938  0.00031008  0.72451268    -0.34200
C966        C  0.11563692  0.00758789  0.72745039     0.16200
O967        O  0.18744570  0.01147656  0.73915975    -0.26200
C968        C  0.16878140  0.02174423  0.72962360     0.06000
C969        C  0.12423210  0.01985650  0.72199998    -0.31100
O970        O  0.04636235  0.97912944  0.73106853    -0.22900
C971        C  0.06545264  0.96889200  0.74057185    -0.02900
C972        C  0.10972642  0.97094168  0.74840745    -0.17300
H973        H  0.18776525  0.98667089  0.75409999     0.20700
H974        H  0.04570630  0.00408826  0.71630839     0.19100
H975        H  0.10112877  0.02665904  0.71417756     0.19000
H976        H  0.13320134  0.96419649  0.75610390     0.14900
C977        C  0.34105639  0.12907035  0.73671177     0.30300
C978        C  0.35517175  0.11642717  0.73612682    -0.36000
C979        C  0.32043864  0.10740082  0.73631701     0.16300
C980        C  0.27505937  0.11065667  0.73681902     0.22100
C981        C  0.26098700  0.12328211  0.73766479    -0.34200
C982        C  0.29568016  0.13229528  0.73767411     0.16200
O983        O  0.36767687  0.13902005  0.73600342    -0.26200
C984        C  0.33904245  0.14872241  0.73670629     0.06000
C985        C  0.29374865  0.14514020  0.73786443    -0.31100
O986        O  0.24823920  0.10076294  0.73604199    -0.22900
C987        C  0.27666781  0.09103071  0.73527038    -0.02900
C988        C  0.32213080  0.09454302  0.73549231    -0.17300
H989        H  0.39067989  0.11382825  0.73532787     0.20700
H990        H  0.22546035  0.12588595  0.73802575     0.19100
H991        H  0.26392215  0.15110462  0.73821095     0.19000
H992        H  0.35182523  0.08854158  0.73462009     0.14900
C993        C  0.46382024  0.05978134  0.33918578     0.30300
C994        C  0.48475080  0.05954927  0.36190873    -0.36000
C995        C  0.45556279  0.06032504  0.38180227     0.16300
C996        C  0.40901403  0.06113451  0.37935976     0.22100
C997        C  0.38818760  0.06163341  0.35666196    -0.34200
C998        C  0.41737258  0.06096352  0.33679535     0.16200
O999        O  0.48437695  0.05856727  0.31826682    -0.26200
C1000       C  0.45078830  0.05912468  0.30226692     0.06000
C1001       C  0.40828463  0.06068475  0.31270925    -0.31100
O1002       O  0.38790669  0.06078460  0.40020601    -0.22900
C1003       C  0.42123952  0.05990744  0.41627228    -0.02900
C1004       C  0.46423229  0.05970250  0.40594547    -0.17300
H1005       H  0.52111467  0.05852775  0.36392054     0.20700
H1006       H  0.35168763  0.06217579  0.35465541     0.19100
H1007       H  0.37554447  0.06113900  0.30390485     0.19000
H1008       H  0.49671213  0.05862176  0.41481839     0.14900
C1009       C  0.34213758  0.05558452  0.59197947     0.30300
C1010       C  0.35285314  0.05528293  0.61657815    -0.36000
C1011       C  0.31583156  0.05520998  0.63249677     0.16300
C1012       C  0.27122434  0.05566154  0.62489391     0.22100
C1013       C  0.26048202  0.05586507  0.60027103    -0.34200
C1014       C  0.29752382  0.05568977  0.58432993     0.16200
O1015       O  0.37138283  0.05557580  0.57390984    -0.26200
C1016       C  0.34505760  0.05547298  0.55445112     0.06000
C1017       C  0.29889336  0.05551738  0.55986596    -0.31100
O1018       O  0.24206724  0.05566802  0.64302308    -0.22900
C1019       C  0.26849010  0.05500878  0.66242281    -0.02900
C1020       C  0.31456994  0.05468295  0.65691817    -0.17300
H1021       H  0.38761292  0.05500755  0.62287639     0.20700
H1022       H  0.22571321  0.05603186  0.59397017     0.19100
H1023       H  0.27047763  0.05552835  0.54749745     0.19000
H1024       H  0.34304888  0.05425968  0.66921746     0.14900
C1025       C  0.21836759  0.18129688  0.37933750     0.30300
C1026       C  0.23908142  0.18102712  0.35654980    -0.36000
C1027       C  0.20958650  0.18064905  0.33676029     0.16300
C1028       C  0.16297589  0.18068267  0.33935087     0.22100
C1029       C  0.14229189  0.18071996  0.36212991    -0.34200
C1030       C  0.17176837  0.18096773  0.38190520     0.16200
O1031       O  0.23940237  0.18220716  0.40016072    -0.26200
C1032       C  0.20595594  0.18231674  0.41629317     0.06000
C1033       C  0.16304375  0.18147692  0.40603469    -0.31100
O1034       O  0.14179687  0.18105547  0.31852968    -0.22900
C1035       C  0.17511108  0.18109501  0.30233315    -0.02900
C1036       C  0.21816096  0.18076515  0.31257067    -0.17300
H1037       H  0.27559513  0.18133008  0.35441296     0.20700
H1038       H  0.10576060  0.18079471  0.36425546     0.19100
H1039       H  0.13037816  0.18163429  0.41497240     0.19000
H1040       H  0.25075450  0.18105421  0.30357263     0.14900
C1041       C  0.16551989  0.23853612  0.48010293     0.30300
C1042       C  0.16695202  0.25095359  0.47141734    -0.36000
C1043       C  0.12692502  0.25800320  0.47411548     0.16300
C1044       C  0.08808598  0.25325439  0.48470893     0.22100
C1045       C  0.08671933  0.24085815  0.49349594    -0.34200
C1046       C  0.12669999  0.23379616  0.49073386     0.16200
O1047       O  0.19832881  0.23005754  0.47851985    -0.26200
C1048       C  0.18016330  0.21976565  0.48829902     0.06000
C1049       C  0.13580576  0.22158912  0.49627518    -0.31100
O1050       O  0.05485521  0.26162663  0.48570454    -0.22900
C1051       C  0.07274114  0.27185454  0.47554923    -0.02900
C1052       C  0.11740705  0.27011142  0.46800407    -0.17300
H1053       H  0.19699943  0.25481743  0.46294434     0.20700
H1054       H  0.05653834  0.23695942  0.50177486     0.19100
H1055       H  0.11295582  0.21474074  0.50419170     0.19000
H1056       H  0.14003249  0.27692462  0.45980074     0.14900
C1057       C  0.27810450  0.18539513  0.59279901     0.30300
C1058       C  0.26635084  0.18498342  0.61724590    -0.36000
C1059       C  0.30269893  0.18497851  0.63355702     0.16300
C1060       C  0.34765050  0.18514959  0.62645982     0.22100
C1061       C  0.35940451  0.18568648  0.60199550    -0.34200
C1062       C  0.32301103  0.18589914  0.58567671     0.16200
O1063       O  0.24964021  0.18545245  0.57441233    -0.26200
C1064       C  0.27675908  0.18619119  0.55530808     0.06000
C1065       C  0.32264981  0.18652939  0.56125191    -0.31100
O1066       O  0.37605118  0.18496990  0.64490377    -0.22900
C1067       C  0.34872856  0.18485444  0.66399056    -0.02900
C1068       C  0.30287754  0.18487871  0.65797465    -0.17300
H1069       H  0.23133094  0.18474793  0.62315521     0.20700
H1070       H  0.39441796  0.18599010  0.59609093     0.19100
H1071       H  0.35156871  0.18697781  0.54923291     0.19000
H1072       H  0.27384508  0.18478736  0.66994925     0.14900
C1073       C  0.27995183  0.13032198  0.48083020     0.30300
C1074       C  0.26465161  0.11778103  0.48060566    -0.36000
C1075       C  0.29849257  0.10851294  0.48022573     0.16300
C1076       C  0.34415795  0.11145278  0.48024856     0.22100
C1077       C  0.35944917  0.12399236  0.48013612    -0.34200
C1078       C  0.32561070  0.13325836  0.48036444     0.16200
O1079       O  0.25419363  0.14041913  0.48201707    -0.26200
C1080       C  0.28359282  0.14995216  0.48211249     0.06000
C1081       C  0.32863101  0.14610467  0.48099970    -0.31100
O1082       O  0.36996258  0.10135958  0.48108344    -0.22900
C1083       C  0.34059699  0.09182138  0.48139535    -0.02900
C1084       C  0.29551799  0.09566115  0.48073511    -0.17300
H1085       H  0.22889646  0.11542916  0.48109165     0.20700
H1086       H  0.39521600  0.12634303  0.48027442     0.19100
H1087       H  0.35894293  0.15188458  0.48122269     0.19000
H1088       H  0.26523463  0.08987718  0.48133143     0.14900
C1089       C  0.32181163  0.30931923  0.07957274     0.30300
C1090       C  0.35509216  0.30904285  0.09759386    -0.36000
C1091       C  0.33904487  0.30886311  0.12139099     0.16300
C1092       C  0.29346207  0.30914112  0.12722930     0.22100
C1093       C  0.26016953  0.30940025  0.10920236    -0.34200
C1094       C  0.27620513  0.30938439  0.08539109     0.16200
O1095       O  0.32901020  0.30894667  0.05608069    -0.26200
C1096       C  0.28739965  0.30863898  0.04682163     0.06000
C1097       C  0.25334460  0.30890410  0.06420193    -0.31100
O1098       O  0.28625936  0.30867567  0.15072270    -0.22900
C1099       C  0.32784550  0.30796281  0.15994207    -0.02900
C1100       C  0.36186591  0.30803844  0.14253534    -0.17300
H1101       H  0.39095523  0.30869959  0.09336817     0.20700
H1102       H  0.22428268  0.30933369  0.11341881     0.19100
H1103       H  0.21694896  0.30853272  0.06156101     0.19000
H1104       H  0.39823688  0.30746031  0.14513429     0.14900
C1105       C  0.40834752  0.23767929  0.98064006     0.30300
C1106       C  0.41020001  0.25017377  0.97236527    -0.36000
C1107       C  0.37003856  0.25720597  0.97470861     0.16300
C1108       C  0.33063753  0.25235167  0.98451327     0.22100
C1109       C  0.32878229  0.23985920  0.99278086    -0.34200
C1110       C  0.36895405  0.23283386  0.99046660     0.16200
O1111       O  0.44147172  0.22926822  0.97961969    -0.26200
C1112       C  0.42296156  0.21891720  0.98899546     0.06000
C1113       C  0.37800731  0.22062920  0.99608125    -0.31100
O1114       O  0.29748941  0.26075138  0.98552050    -0.22900
C1115       C  0.31600155  0.27111267  0.97619812    -0.02900
C1116       C  0.36097450  0.26941821  0.96913039    -0.17300
H1117       H  0.44076517  0.25413755  0.96461374     0.20700
H1118       H  0.29821175  0.23589422  0.00052440     0.19100
H1119       H  0.35485513  0.21372753  0.00357075     0.19000
H1120       H  0.38408236  0.27632426  0.96161713     0.14900
C1121       C  0.06972733  0.43077769  0.08297818     0.30300
C1122       C  0.09093771  0.43122131  0.10558954    -0.36000
C1123       C  0.06190707  0.43153797  0.12555403     0.16300
C1124       C  0.01523680  0.43155098  0.12331090     0.22100
C1125       C  0.99402132  0.43088397  0.10069537    -0.34200
C1126       C  0.02307496  0.43044353  0.08071824     0.16200
O1127       O  0.09038544  0.43104017  0.06200632    -0.26200
C1128       C  0.05670823  0.43072814  0.04605126     0.06000
C1129       C  0.01392919  0.43024952  0.05659168    -0.31100
O1130       O  0.99461138  0.43247582  0.14425504    -0.22900
C1131       C  0.02840887  0.43290418  0.16013933    -0.02900
C1132       C  0.07114363  0.43228812  0.14959773    -0.17300
H1133       H  0.12750416  0.43152388  0.10744485     0.20700
H1134       H  0.95744723  0.43092425  0.09881332     0.19100
H1135       H  0.98112288  0.43026925  0.04781544     0.19000
H1136       H  0.10399238  0.43265526  0.15830612     0.14900
C1137       C  0.02099030  0.48654515  0.97926180     0.30300
C1138       C  0.02461523  0.49925073  0.98611223    -0.36000
C1139       C  0.48515666  0.50655660  0.98354590     0.16300
C1140       C  0.44477443  0.50178493  0.97478092     0.22100
C1141       C  0.44116963  0.48907643  0.96787684    -0.34200
C1142       C  0.98064060  0.48175996  0.97047464     0.16200
O1143       O  0.05318034  0.47788390  0.98087302    -0.26200
C1144       C  0.03311472  0.46741461  0.97296340     0.06000
C1145       C  0.98807905  0.46930705  0.96619589    -0.31100
O1146       O  0.41241517  0.51042734  0.97355548    -0.22900
C1147       C  0.43247231  0.52085514  0.98170223    -0.02900
C1148       C  0.47762958  0.51895675  0.98819503    -0.17300
H1149       H  0.05592222  0.50315954  0.99309388     0.20700
H1150       H  0.40978927  0.48515053  0.96102443     0.19100
H1151       H  0.96388212  0.46239184  0.95973870     0.19000
H1152       H  0.50177480  0.52582630  0.99488151     0.14900
C1153       C  0.17807958  0.38177365  0.98177970     0.30300
C1154       C  0.21617249  0.37387456  0.98170307    -0.36000
C1155       C  0.20720727  0.36088573  0.98125961     0.16300
C1156       C  0.16383580  0.35592195  0.98119299     0.22100
C1157       C  0.12568487  0.36383012  0.98124134    -0.34200
C1158       C  0.13466309  0.37683949  0.98140875     0.16200
O1159       O  0.17852278  0.39423004  0.98142131    -0.26200
C1160       C  0.13479377  0.39728714  0.98064531     0.06000
C1161       C  0.10602095  0.38686090  0.98060934    -0.31100
O1162       O  0.16361060  0.34345470  0.98045402    -0.22900
C1163       C  0.20745596  0.34046923  0.97984625    -0.02900
C1164       C  0.23599621  0.35092718  0.98030238    -0.17300
H1165       H  0.25041502  0.37759082  0.98160095     0.20700
H1166       H  0.09144896  0.36011619  0.98080055     0.19100
H1167       H  0.06929885  0.38670918  0.97978657     0.19000
H1168       H  0.27273985  0.35114048  0.97985149     0.14900
C1169       C  0.03170094  0.31000145  0.58300706     0.30300
C1170       C  0.01038410  0.31014461  0.60562131    -0.36000
C1171       C  0.03933469  0.30987294  0.62560915     0.16300
C1172       C  0.08597572  0.30938287  0.62334802     0.22100
C1173       C  0.10730423  0.30948164  0.60074783    -0.34200
C1174       C  0.07837902  0.30986191  0.58077088     0.16200
O1175       O  0.01112484  0.30949878  0.56203854    -0.26200
C1176       C  0.04494079  0.30919248  0.54615267     0.06000
C1177       C  0.08767989  0.30949659  0.55669443    -0.31100
O1178       O  0.10648113  0.30846825  0.64427403    -0.22900
C1179       C  0.07271175  0.30850755  0.66019289    -0.02900
C1180       C  0.03003351  0.30944979  0.64969376    -0.17300
H1181       H  0.47379822  0.31017578  0.60747021     0.20700
H1182       H  0.14385011  0.30901717  0.59888913     0.19100
H1183       H  0.12050854  0.30897261  0.54797809     0.19000
H1184       H  0.99717909  0.30941985  0.65843848     0.14900
C1185       C  0.99852413  0.25752631  0.73496858     0.30300
C1186       C  0.45693497  0.25145382  0.73917589    -0.36000
C1187       C  0.45583559  0.23849255  0.73428123     0.16300
C1188       C  0.49319600  0.23199461  0.72582184     0.22100
C1189       C  0.03476825  0.23809041  0.72147458    -0.34200
C1190       C  0.03590568  0.25106345  0.72643859     0.16200
O1191       O  0.00685465  0.26958533  0.73828278    -0.26200
C1192       C  0.05013055  0.27092778  0.73188421     0.06000
C1193       C  0.07014022  0.25971033  0.72432926    -0.31100
O1194       O  0.48507077  0.21985906  0.72323275    -0.22900
C1195       C  0.44197396  0.21855034  0.73005069    -0.02900
C1196       C  0.42187944  0.22984402  0.73703479    -0.17300
H1197       H  0.42758978  0.25648153  0.74594917     0.20700
H1198       H  0.06423712  0.23304122  0.71491742     0.19100
H1199       H  0.10440460  0.25820713  0.71788736     0.19000
H1200       H  0.38782825  0.23138061  0.74376350     0.14900
C1201       C  0.21620261  0.30435216  0.87000003     0.30300
C1202       C  0.22755069  0.30469381  0.84546687    -0.36000
C1203       C  0.19091219  0.30463811  0.82929650     0.16300
C1204       C  0.14609669  0.30446592  0.83662683     0.22100
C1205       C  0.13476673  0.30398271  0.86114489    -0.34200
C1206       C  0.17140642  0.30383472  0.87729972     0.16200
O1207       O  0.24490696  0.30444164  0.88831560    -0.26200
C1208       C  0.21800423  0.30378095  0.90753717     0.06000
C1209       C  0.17207196  0.30333766  0.90172311    -0.31100
O1210       O  0.11733620  0.30462255  0.81834590    -0.22900
C1211       C  0.14422616  0.30471828  0.79908705    -0.02900
C1212       C  0.19022037  0.30471332  0.80484768    -0.17300
H1213       H  0.26246772  0.30495359  0.83939472     0.20700
H1214       H  0.09985126  0.30369769  0.86721546     0.19100
H1215       H  0.14328026  0.30294786  0.91383608     0.19000
H1216       H  0.21899494  0.30482136  0.79270141     0.14900
C1217       C  0.27352931  0.43101204  0.62459690     0.30300
C1218       C  0.25308886  0.43066724  0.60177988    -0.36000
C1219       C  0.28279618  0.43033620  0.58209597     0.16300
C1220       C  0.32938227  0.43046389  0.58478711     0.22100
C1221       C  0.34982816  0.43057090  0.60762563    -0.34200
C1222       C  0.32010255  0.43079351  0.62732411     0.16200
O1223       O  0.25216691  0.43190539  0.64531267    -0.26200
C1224       C  0.28532985  0.43212751  0.66156988     0.06000
C1225       C  0.32844875  0.43137316  0.65149591    -0.31100
O1226       O  0.35071246  0.43089736  0.56399729    -0.22900
C1227       C  0.31747520  0.43089291  0.54776780    -0.02900
C1228       C  0.27438673  0.43046088  0.55792378    -0.17300
H1229       H  0.21659364  0.43089939  0.59954376     0.20700
H1230       H  0.38633144  0.43073434  0.60984728     0.19100
H1231       H  0.36096051  0.43160841  0.66056696     0.19000
H1232       H  0.24184884  0.43070781  0.54888091     0.14900
C1233       C  0.39527906  0.50354959  0.73213727     0.30300
C1234       C  0.39793108  0.49092425  0.73946600    -0.36000
C1235       C  0.35823620  0.48375975  0.73664836     0.16300
C1236       C  0.31848629  0.48858012  0.72722098     0.22100
C1237       C  0.31577925  0.50123579  0.71994498    -0.34200
C1238       C  0.35553620  0.50841469  0.72277540     0.16200
O1239       O  0.42809948  0.51203103  0.73350473    -0.26200
C1240       C  0.40907511  0.52246358  0.72484740     0.06000
C1241       C  0.36404382  0.52074262  0.71789578    -0.31100
O1242       O  0.28602418  0.47998627  0.72550479    -0.22900
C1243       C  0.30541553  0.46956485  0.73404591    -0.02900
C1244       C  0.35017480  0.47141028  0.74128067    -0.17300
H1245       H  0.42880780  0.48694572  0.74680492     0.20700
H1246       H  0.28497868  0.50519475  0.71247886     0.19100
H1247       H  0.34063190  0.52767748  0.71078340     0.19000
H1248       H  0.37388503  0.46450947  0.74823720     0.14900
C1249       C  0.13333622  0.43346875  0.86972857     0.30300
C1250       C  0.12307106  0.43422888  0.84510489    -0.36000
C1251       C  0.16041633  0.43451967  0.82938591     0.16300
C1252       C  0.20487397  0.43387817  0.83719166     0.22100
C1253       C  0.21515088  0.43321247  0.86181180    -0.34200
C1254       C  0.17783727  0.43313354  0.87754113     0.16200
O1255       O  0.10383303  0.43333631  0.88770213    -0.26200
C1256       C  0.12997306  0.43308455  0.90723127     0.06000
C1257       C  0.17617022  0.43295116  0.90195443    -0.31100
O1258       O  0.23440550  0.43410249  0.81925401    -0.22900
C1259       C  0.20841233  0.43507703  0.79975626    -0.02900
C1260       C  0.16220734  0.43540860  0.80501248    -0.17300
H1261       H  0.08843807  0.43468909  0.83865222     0.20700
H1262       H  0.24979834  0.43289241  0.86827756     0.19100
H1263       H  0.20446266  0.43279718  0.91439996     0.19000
H1264       H  0.13398609  0.43603228  0.79257853     0.14900
C1265       C  0.16803063  0.38306449  0.72487398     0.30300
C1266       C  0.13154346  0.37462622  0.72590711    -0.36000
C1267       C  0.14294822  0.36179707  0.72527464     0.16300
C1268       C  0.18707629  0.35747914  0.72345921     0.22100
C1269       C  0.22359462  0.36592297  0.72237248    -0.34200
C1270       C  0.21221942  0.37876121  0.72330680     0.16200
O1271       O  0.16543995  0.39547966  0.72622977    -0.26200
C1272       C  0.20859206  0.39911274  0.72572334     0.06000
C1273       C  0.23907856  0.38913413  0.72388573    -0.31100
O1274       O  0.18974772  0.34503892  0.72377891    -0.22900
C1275       C  0.14673472  0.34142271  0.72599437    -0.02900
C1276       C  0.11628072  0.35143573  0.72696847    -0.17300
H1277       H  0.09678487  0.37782424  0.72761576     0.20700
H1278       H  0.25844640  0.36271872  0.72140907     0.19100
H1279       H  0.27581159  0.38948964  0.72347719     0.19000
H1280       H  0.07972473  0.35110732  0.72894547     0.14900
C1281       C  0.04533257  0.80908778  0.12941003     0.30300
C1282       C  0.01223202  0.80924328  0.11128176    -0.36000
C1283       C  0.02849176  0.80945902  0.08752310     0.16300
C1284       C  0.07413749  0.80971970  0.08183285     0.22100
C1285       C  0.10726920  0.80954776  0.09997170    -0.34200
C1286       C  0.09099972  0.80911445  0.12373813     0.16200
O1287       O  0.03784282  0.80844313  0.15285658    -0.26200
C1288       C  0.07931488  0.80789808  0.16225281     0.06000
C1289       C  0.11359439  0.80827380  0.14499000    -0.31100
O1290       O  0.08153935  0.80955712  0.05833440    -0.22900
C1291       C  0.04001882  0.80905000  0.04895163    -0.02900
C1292       C  0.00584024  0.80898062  0.06626717    -0.17300
H1293       H  0.97631693  0.80893288  0.11538600     0.20700
H1294       H  0.14319356  0.80946068  0.09584883     0.19100
H1295       H  0.14995455  0.80788897  0.14775111     0.19000
H1296       H  0.46949689  0.80843252  0.06353898     0.14900
C1297       C  0.99670490  0.75815741  0.23660701     0.30300
C1298       C  0.45408550  0.75238529  0.23963395    -0.36000
C1299       C  0.45198128  0.73944895  0.23430125     0.16300
C1300       C  0.48937376  0.73273368  0.22654132     0.22100
C1301       C  0.03189617  0.73850455  0.22347242    -0.34200
C1302       C  0.03401971  0.75141363  0.22884139     0.16200
O1303       O  0.00613877  0.77015957  0.24019976    -0.26200
C1304       C  0.05006059  0.77114096  0.23474769     0.06000
C1305       C  0.06930510  0.75975835  0.22757495    -0.31100
O1306       O  0.48031499  0.72070756  0.22319523    -0.22900
C1307       C  0.43655135  0.71962410  0.22881712    -0.02900
C1308       C  0.41693112  0.73100425  0.23581398    -0.17300
H1309       H  0.42469690  0.75761544  0.24576132     0.20700
H1310       H  0.06132522  0.73326378  0.21743441     0.19100
H1311       H  0.10378815  0.75797116  0.22175683     0.19000
H1312       H  0.38246973  0.73271776  0.24174778     0.14900
C1313       C  0.28240824  0.93060974  0.13051055     0.30300
C1314       C  0.26173613  0.93028516  0.10776112    -0.36000
C1315       C  0.29111637  0.93097075  0.08798470     0.16300
C1316       C  0.33757867  0.93202818  0.09053297     0.22100
C1317       C  0.35832696  0.93213018  0.11329168    -0.34200
C1318       C  0.32895944  0.93131385  0.13307822     0.16200
O1319       O  0.26118477  0.93074896  0.15132376    -0.26200
C1320       C  0.29445481  0.93138238  0.16746624     0.06000
C1321       C  0.33751045  0.93165331  0.15724014    -0.31100
O1322       O  0.35843242  0.93312112  0.06970115    -0.22900
C1323       C  0.32504190  0.93261896  0.05358581    -0.02900
C1324       C  0.28232642  0.93121973  0.06386100    -0.17300
H1325       H  0.22524786  0.92977547  0.10565936     0.20700
H1326       H  0.39472464  0.93300358  0.11540613     0.19100
H1327       H  0.36997552  0.93253166  0.16621792     0.19000
H1328       H  0.24971004  0.93076468  0.05492644     0.14900
C1329       C  0.32918958  0.98763522  0.23415439     0.30300
C1330       C  0.32590911  0.00038629  0.22759839    -0.36000
C1331       C  0.36569252  0.00756835  0.23018482     0.16300
C1332       C  0.40598663  0.00261436  0.23867109     0.22100
C1333       C  0.40919860  0.98989293  0.24533000    -0.34200
C1334       C  0.36946871  0.98271783  0.24273123     0.16200
O1335       O  0.29676420  0.97904078  0.23244291    -0.26200
C1336       C  0.31668298  0.96851213  0.24010931     0.06000
C1337       C  0.36178799  0.97028330  0.24678972    -0.31100
O1338       O  0.43886226  0.01108569  0.23974779    -0.22900
C1339       C  0.41929387  0.02159971  0.23181369    -0.02900
C1340       C  0.37385620  0.01994951  0.22561664    -0.17300
H1341       H  0.29468678  0.00440547  0.22077003     0.20700
H1342       H  0.44053882  0.98584570  0.25194309     0.19100
H1343       H  0.38587524  0.96330269  0.25305678     0.19000
H1344       H  0.35008645  0.02693637  0.21904408     0.14900
C1345       C  0.15436648  0.86013479  0.22710912     0.30300
C1346       C  0.13941019  0.87269495  0.22699233    -0.36000
C1347       C  0.17340373  0.88189132  0.22831401     0.16300
C1348       C  0.21892233  0.87888463  0.22975385     0.22100
C1349       C  0.23393358  0.86631664  0.22949946    -0.34200
C1350       C  0.19991877  0.85711067  0.22807163     0.16200
O1351       O  0.12823361  0.85009404  0.22724392    -0.26200
C1352       C  0.15727158  0.84049856  0.22808729     0.06000
C1353       C  0.20247898  0.84425038  0.22847824    -0.31100
O1354       O  0.24474528  0.88893925  0.23190287    -0.22900
C1355       C  0.21549357  0.89850246  0.23166502    -0.02900
C1356       C  0.17055049  0.89472131  0.22935238    -0.17300
H1357       H  0.10372130  0.87510908  0.22641417     0.20700
H1358       H  0.26954765  0.86389575  0.23079739     0.19100
H1359       H  0.23250896  0.83840546  0.22979853     0.19000
H1360       H  0.14034236  0.90053520  0.22903076     0.14900
C1361       C  0.29046044  0.80933797  0.58411987     0.30300
C1362       C  0.26849346  0.80917547  0.60654910    -0.36000
C1363       C  0.29679362  0.80927289  0.62679674     0.16300
C1364       C  0.34352929  0.80936124  0.62500942     0.22100
C1365       C  0.36553020  0.80974003  0.60254356    -0.34200
C1366       C  0.33716189  0.80978261  0.58225770     0.16200
O1367       O  0.27046709  0.80882757  0.56298974    -0.26200
C1368       C  0.30458022  0.80910324  0.54728197     0.06000
C1369       C  0.34703861  0.80976843  0.55817623    -0.31100
O1370       O  0.36337720  0.80872742  0.64620900    -0.22900
C1371       C  0.32898119  0.80838867  0.66177674    -0.02900
C1372       C  0.28666293  0.80879580  0.65077077    -0.17300
H1373       H  0.23188134  0.80879910  0.60807739     0.20700
H1374       H  0.40216452  0.80978962  0.60100624     0.19100
H1375       H  0.38010591  0.80984261  0.54966351     0.19000
H1376       H  0.25350115  0.80836235  0.65914179     0.14900
C1377       C  0.41782903  0.73805583  0.47755390     0.30300
C1378       C  0.42111673  0.75060979  0.46967427    -0.36000
C1379       C  0.38185234  0.75801228  0.47239035     0.16300
C1380       C  0.34198844  0.75344317  0.48216472     0.22100
C1381       C  0.33871060  0.74090455  0.49004162    -0.34200
C1382       C  0.37795841  0.73352003  0.48736983     0.16200
O1383       O  0.44988792  0.72932466  0.47620532    -0.26200
C1384       C  0.43015492  0.71908652  0.48536284     0.06000
C1385       C  0.38552611  0.72119944  0.49262843    -0.31100
O1386       O  0.30988901  0.76213989  0.48358752    -0.22900
C1387       C  0.32951180  0.77242138  0.47457812    -0.02900
C1388       C  0.37419057  0.77036979  0.46729298    -0.17300
H1389       H  0.45207433  0.75435155  0.46195984     0.20700
H1390       H  0.30776928  0.73716604  0.49778267     0.19100
H1391       H  0.36159474  0.71448467  0.50004903     0.19000
H1392       H  0.39803936  0.77713429  0.45996749     0.14900
C1393       C  0.19548679  0.80532446  0.33006162     0.30300
C1394       C  0.23553806  0.80516155  0.34382093    -0.36000
C1395       C  0.22995239  0.80604267  0.36886411     0.16300
C1396       C  0.18772464  0.80683028  0.37953624     0.22100
C1397       C  0.14772592  0.80719699  0.36575920    -0.34200
C1398       C  0.15334770  0.80648724  0.34070373     0.16200
O1399       O  0.19290579  0.80443332  0.30644509    -0.26200
C1400       C  0.14862837  0.80516187  0.30178247     0.06000
C1401       C  0.12224806  0.80653658  0.32241508    -0.31100
O1402       O  0.19014425  0.80708366  0.40320803    -0.22900
C1403       C  0.23446538  0.80664274  0.40785121    -0.02900
C1404       C  0.26105390  0.80606024  0.38715928    -0.17300
H1405       H  0.26870453  0.80434045  0.33556208     0.20700
H1406       H  0.11453595  0.80790712  0.37402921     0.19100
H1407       H  0.08568905  0.80729466  0.32374014     0.19000
H1408       H  0.29764559  0.80543029  0.38583802     0.14900
C1409       C  0.04722093  0.93160836  0.58725519     0.30300
C1410       C  0.01448266  0.93111093  0.60554064    -0.36000
C1411       C  0.03118668  0.93127778  0.62919421     0.16300
C1412       C  0.07692187  0.93170947  0.63464669     0.22100
C1413       C  0.10965861  0.93224011  0.61635556    -0.34200
C1414       C  0.09292389  0.93226312  0.59269901     0.16200
O1415       O  0.03929998  0.93191339  0.56383663    -0.26200
C1416       C  0.08052120  0.93290949  0.55425827     0.06000
C1417       C  0.11505009  0.93317933  0.57135168    -0.31100
O1418       O  0.08471791  0.93204865  0.65808445    -0.22900
C1419       C  0.04333461  0.93196366  0.66765002    -0.02900
C1420       C  0.50886730  0.93148447  0.65053973    -0.17300
H1421       H  0.47849158  0.93085019  0.60162525     0.20700
H1422       H  0.14559390  0.93283763  0.62027834     0.19100
H1423       H  0.15127665  0.93399954  0.56841760     0.19000
H1424       H  0.47251605  0.93147091  0.65346318     0.14900
C1425       C  0.53777824  0.98852137  0.48712174     0.30300
C1426       C  0.53960665  0.00120149  0.49438808    -0.36000
C1427       C  0.49985081  0.00827951  0.49082575     0.16300
C1428       C  0.46087915  0.00331537  0.48074478     0.22100
C1429       C  0.45908491  0.99064689  0.47343777    -0.34200
C1430       C  0.49879053  0.98356200  0.47705062     0.16200
O1431       O  0.07045526  0.98003363  0.48942732    -0.26200
C1432       C  0.05200467  0.96950635  0.48069629     0.06000
C1433       C  0.50759512  0.97119402  0.47271045    -0.31100
O1434       O  0.42792496  0.01173989  0.47878815    -0.22900
C1435       C  0.44611979  0.02223005  0.48780423    -0.02900
C1436       C  0.49071197  0.02059115  0.49556406    -0.17300
H1437       H  0.56978764  0.00525475  0.50239254     0.20700
H1438       H  0.42881381  0.98657496  0.46556582     0.19100
H1439       H  0.48463219  0.96419523  0.46537184     0.19000
H1440       H  0.51347597  0.02757108  0.50314051     0.14900
C1441       C  0.14796718  0.93457709  0.37687521     0.30300
C1442       C  0.13639764  0.93419305  0.35236626    -0.36000
C1443       C  0.17291289  0.93441923  0.33608898     0.16300
C1444       C  0.21776264  0.93475977  0.34333380     0.22100
C1445       C  0.22928355  0.93525612  0.36778623    -0.34200
C1446       C  0.19281546  0.93525375  0.38401674     0.16200
O1447       O  0.11948324  0.93452922  0.39530890    -0.26200
C1448       C  0.14664974  0.93536409  0.41439667     0.06000
C1449       C  0.19246388  0.93587355  0.40839673    -0.31100
O1450       O  0.24643243  0.93478349  0.32503875    -0.22900
C1451       C  0.21950489  0.93464382  0.30583760    -0.02900
C1452       C  0.17351408  0.93444141  0.31162249    -0.17300
H1453       H  0.10143963  0.93384145  0.34639480     0.20700
H1454       H  0.26423090  0.93571055  0.37375227     0.19100
H1455       H  0.22139990  0.93648625  0.42036700     0.19000
H1456       H  0.14474010  0.93425403  0.29949476     0.14900
C1457       C  0.20048580  0.88410147  0.48690984     0.30300
C1458       C  0.23821145  0.87612671  0.48450679    -0.36000
C1459       C  0.22894475  0.86313017  0.48426926     0.16300
C1460       C  0.18567249  0.85824702  0.48652066     0.22100
C1461       C  0.14795758  0.86621763  0.48897196    -0.34200
C1462       C  0.15717230  0.87921560  0.48893332     0.16200
O1463       O  0.20095853  0.89657647  0.48646134    -0.26200
C1464       C  0.15730189  0.89968245  0.48804536     0.06000
C1465       C  0.12863967  0.88926706  0.48967814    -0.31100
O1466       O  0.18490460  0.84578608  0.48545763    -0.22900
C1467       C  0.22827250  0.84268061  0.48233491    -0.02900
C1468       C  0.25709620  0.85308810  0.48146367    -0.17300
H1469       H  0.27230399  0.87979533  0.48247183     0.20700
H1470       H  0.11373541  0.86255553  0.49033747     0.19100
H1471       H  0.09192935  0.88913800  0.49067499     0.19000
H1472       H  0.29356585  0.85321782  0.47902481     0.14900
O1473       O  0.55925988  0.93049823  0.51281626    -0.73900
O1474       O  0.59129350  0.93145877  0.44528229    -0.73900
O1475       O  0.59857220  0.91434690  0.48144427    -0.74000
O1476       O  0.54970570  0.94740634  0.47655276    -0.74000
O1477       O  0.61629965  0.95582630  0.48696128    -0.74000
O1478       O  0.66707890  0.92215014  0.49000831    -0.73900
O1479       O  0.65816465  0.93982721  0.45540746    -0.73900
O1480       O  0.62789628  0.93811680  0.52171197    -0.74000
Ni1481     Ni  0.57227456  0.93066325  0.47864979     1.25400
Ni1482     Ni  0.64473368  0.93931684  0.48882322     1.25400
C1483       C  0.58923297  0.93391886  0.52831412     0.88300
C1484       C  0.63075884  0.93563796  0.43947748     0.88200
C1485       C  0.64046272  0.91271567  0.48648852     0.88200
C1486       C  0.57417445  0.95703840  0.48132241     0.88400
O1487       O  0.82535684  0.81160245  0.50557531    -0.73900
O1488       O  0.79130787  0.81042448  0.43820653    -0.73900
O1489       O  0.78584112  0.82778721  0.47421412    -0.74000
O1490       O  0.83307309  0.79448252  0.46947609    -0.74000
O1491       O  0.76609003  0.78642501  0.48023455    -0.74000
O1492       O  0.71742672  0.82028057  0.48387905    -0.73900
O1493       O  0.72397134  0.80258990  0.44900421    -0.73900
O1494       O  0.75671992  0.80417032  0.51504764    -0.74000
Ni1495     Ni  0.81133307  0.81133722  0.47144920     1.25400
Ni1496     Ni  0.73868785  0.80304316  0.48233127     1.25400
C1497       C  0.79573800  0.80822573  0.52132895     0.88300
C1498       C  0.75130507  0.80647516  0.43277863     0.88200
C1499       C  0.74434216  0.82959811  0.47998209     0.88200
C1500       C  0.80812048  0.78499479  0.47457418     0.88400
O1501       O  0.81330359  0.92926966  0.20929233    -0.73900
O1502       O  0.77643362  0.93072676  0.27597872    -0.73900
O1503       O  0.77225872  0.91330906  0.24022869    -0.74000
O1504       O  0.81963214  0.94649735  0.24510879    -0.74000
O1505       O  0.75327482  0.95462656  0.23353017    -0.74000
O1506       O  0.70425675  0.92086252  0.22986334    -0.73900
O1507       O  0.70968684  0.93866177  0.26447576    -0.73900
O1508       O  0.74514539  0.93668994  0.19886484    -0.74000
Ni1509     Ni  0.79780992  0.92969341  0.24310582     1.25400
Ni1510     Ni  0.72571836  0.93804414  0.23134227     1.25400
C1511       C  0.78434727  0.93252876  0.19316707     0.88300
C1512       C  0.73636847  0.93473909  0.28096752     0.88200
C1513       C  0.73099090  0.91155503  0.23408996     0.88200
C1514       C  0.79504820  0.95599971  0.23970281     0.88400
O1515       O  0.55879276  0.81007229  0.20388036    -0.73900
O1516       O  0.59202693  0.80888114  0.27129149    -0.73900
O1517       O  0.59914657  0.82597075  0.23521927    -0.74000
O1518       O  0.54904292  0.79309614  0.23995567    -0.74000
O1519       O  0.61532891  0.78457019  0.22925306    -0.74000
O1520       O  0.66730592  0.81804805  0.22618894    -0.73900
O1521       O  0.65851928  0.80040216  0.26080376    -0.73900
O1522       O  0.62702196  0.80232369  0.19453408    -0.74000
Ni1523     Ni  0.57233580  0.80976507  0.23800135     1.25400
Ni1524     Ni  0.64439401  0.80097799  0.22739593     1.25400
C1525       C  0.58842700  0.80667053  0.18816658     0.88300
C1526       C  0.63162514  0.80469790  0.27687897     0.88200
C1527       C  0.64092605  0.82750172  0.22990914     0.88200
C1528       C  0.57310246  0.78345586  0.23481045     0.88400
O1529       O  0.80424955  0.43041262  0.70351041    -0.73900
O1530       O  0.76647553  0.43158494  0.77016653    -0.73900
O1531       O  0.76428071  0.41425610  0.73427518    -0.74000
O1532       O  0.80898573  0.44762815  0.73947349    -0.74000
O1533       O  0.74249961  0.45545295  0.72737033    -0.74000
O1534       O  0.69567774  0.42139094  0.72397259    -0.73900
O1535       O  0.69964717  0.43934575  0.75840572    -0.73900
O1536       O  0.73562282  0.43739010  0.69286418    -0.74000
Ni1537     Ni  0.78840862  0.43074025  0.73732047     1.25400
Ni1538     Ni  0.71595033  0.43871975  0.72530921     1.25400
C1539       C  0.77513751  0.43342464  0.68727279     0.88300
C1540       C  0.72613078  0.43544144  0.77500823     0.88200
C1541       C  0.72318907  0.41224765  0.72812024     0.88200
C1542       C  0.78408219  0.45701003  0.73376964     0.88400
O1543       O  0.55230211  0.31024263  0.70196279    -0.73900
O1544       O  0.58731621  0.30851190  0.76899981    -0.73900
O1545       O  0.59106419  0.32615269  0.73376424    -0.74000
O1546       O  0.54606338  0.29275601  0.73726150    -0.74000
O1547       O  0.61335898  0.28505484  0.72603029    -0.74000
O1548       O  0.65989089  0.31915422  0.72349595    -0.73900
O1549       O  0.65494396  0.30109630  0.75765205    -0.73900
O1550       O  0.62117510  0.30319364  0.69187500    -0.74000
Ni1551     Ni  0.56675456  0.30965267  0.73593552     1.25400
Ni1552     Ni  0.63976057  0.30180812  0.72443725     1.25400
C1553       C  0.58192894  0.30721367  0.68597010     0.88300
C1554       C  0.62760889  0.30472033  0.77412208     0.88200
C1555       C  0.63225592  0.32824465  0.72786489     0.88200
C1556       C  0.57146052  0.28344102  0.73180240     0.88400
O1557       O  0.53679124  0.42827966  0.00427360    -0.73900
O1558       O  0.57253288  0.42935267  0.93718637    -0.73900
O1559       O  0.57696191  0.41210012  0.97320390    -0.74000
O1560       O  0.52985144  0.44534388  0.96811601    -0.74000
O1561       O  0.59643408  0.45346423  0.97939102    -0.74000
O1562       O  0.64525306  0.41964665  0.98304105    -0.73900
O1563       O  0.63935249  0.43734762  0.94844391    -0.73900
O1564       O  0.60526420  0.43568233  0.01417569    -0.74000
Ni1565     Ni  0.55158755  0.42851174  0.97026945     1.25400
Ni1566     Ni  0.62392312  0.43686296  0.98159521     1.25400
C1567       C  0.56613341  0.43161408  0.02019713     0.88300
C1568       C  0.61262895  0.43332514  0.93205287     0.88200
C1569       C  0.61845208  0.41032745  0.97893035     0.88200
C1570       C  0.55458716  0.45485669  0.97334902     0.88400
O1571       O  0.80731765  0.31057196  0.00508009    -0.73900
O1572       O  0.77383378  0.30824887  0.93786454    -0.73900
O1573       O  0.76636288  0.32594250  0.97297397    -0.74000
O1574       O  0.81705059  0.29306984  0.96989085    -0.74000
O1575       O  0.75104195  0.28461295  0.98122693    -0.74000
O1576       O  0.69845562  0.31804225  0.98253796    -0.73900
O1577       O  0.70755022  0.29983135  0.94888853    -0.73900
O1578       O  0.73923241  0.30288533  0.01491253    -0.74000
Ni1579     Ni  0.79354197  0.30972821  0.97102687     1.25400
Ni1580     Ni  0.72171885  0.30099653  0.98220809     1.25400
C1581       C  0.77788553  0.30731079  0.02099236     0.88300
C1582       C  0.73440984  0.30386265  0.93254725     0.88200
C1583       C  0.72456912  0.32749470  0.97833959     0.88200
C1584       C  0.79318107  0.28346473  0.97556973     0.88400
O1585       O  0.68597253  0.18047527  0.45805340    -0.73900
O1586       O  0.72061761  0.18216149  0.52506688    -0.73900
O1587       O  0.67792899  0.19777705  0.49375431    -0.74000
O1588       O  0.72632771  0.16471288  0.48952054    -0.74000
O1589       O  0.79460171  0.17235497  0.47985553    -0.74000
O1590       O  0.74420607  0.20602350  0.48228729    -0.73900
O1591       O  0.78725726  0.19035952  0.51401672    -0.73900
O1592       O  0.75433971  0.18791854  0.44803870    -0.74000
Ni1593     Ni  0.70030466  0.18102763  0.49201989     1.25400
Ni1594     Ni  0.77248720  0.18950740  0.48072283     1.25400
C1595       C  0.71539067  0.18366764  0.44207998     0.88300
C1596       C  0.76034821  0.18632912  0.53033799     0.88200
C1597       C  0.70228350  0.20731728  0.48827801     0.88200
C1598       C  0.76789889  0.16301129  0.48395321     0.88400
O1599       O  0.93998175  0.06157397  0.45824146    -0.73900
O1600       O  0.90245362  0.05963810  0.52486150    -0.73900
O1601       O  0.94708776  0.04420601  0.49376310    -0.74000
O1602       O  0.89778574  0.07715472  0.48941018    -0.74000
O1603       O  0.83010891  0.06939235  0.47895002    -0.74000
O1604       O  0.88157213  0.03581727  0.48149233    -0.73900
O1605       O  0.83651392  0.05132884  0.51297855    -0.73900
O1606       O  0.87218038  0.05403113  0.44744136    -0.74000
Ni1607     Ni  0.92419250  0.06089919  0.49203656     1.25400
Ni1608     Ni  0.85273533  0.05228630  0.47986386     1.25400
C1609       C  0.91120326  0.05839649  0.44194090     0.88300
C1610       C  0.86258349  0.05539909  0.52964874     0.88200
C1611       C  0.92336634  0.03461589  0.48781979     0.88200
C1612       C  0.85642618  0.07878341  0.48337263     0.88400
O1613       O  0.73310015  0.03528847  0.73545000    -0.73900
O1614       O  0.78560659  0.06862848  0.73788689    -0.73900
O1615       O  0.74352671  0.05335761  0.76963793    -0.74000
O1616       O  0.77761115  0.05068964  0.70377822    -0.74000
O1617       O  0.71173301  0.05918886  0.69236604    -0.74000
O1618       O  0.67577257  0.06104563  0.75921495    -0.73900
O1619       O  0.71802792  0.07662232  0.72795133    -0.73900
O1620       O  0.66745214  0.04374275  0.72357248    -0.74000
Ni1621     Ni  0.76229646  0.05163851  0.73702882     1.25400
Ni1622     Ni  0.69085305  0.06042036  0.72533627     1.25400
C1623       C  0.69122181  0.03413689  0.72933982     0.88300
C1624       C  0.75970090  0.07809822  0.73359452     0.88200
C1625       C  0.70459251  0.05771827  0.77536764     0.88200
C1626       C  0.75133861  0.05486339  0.68730053     0.88400
O1627       O  0.93582493  0.17926196  0.76235856    -0.73900
O1628       O  0.90424990  0.18085597  0.69475030    -0.73900
O1629       O  0.94550143  0.19653927  0.72658028    -0.74000
O1630       O  0.89711406  0.16341956  0.73027351    -0.74000
O1631       O  0.82862178  0.17107731  0.73944532    -0.74000
O1632       O  0.87834539  0.20474856  0.73667271    -0.73900
O1633       O  0.83687274  0.18882910  0.70510898    -0.73900
O1634       O  0.86727369  0.18692019  0.77130355    -0.74000
Ni1635     Ni  0.92316409  0.17976203  0.72812165     1.25400
Ni1636     Ni  0.85043994  0.18822639  0.73845732     1.25400
C1637       C  0.90569151  0.18256911  0.77789027     0.88300
C1638       C  0.86454615  0.18490706  0.68907052     0.88200
C1639       C  0.92046415  0.20606994  0.73112133     0.88200
C1640       C  0.85534681  0.16173387  0.73544295     0.88400
O1641       O  0.92774346  0.56037163  0.95230568    -0.73900
O1642       O  0.89465116  0.55843929  0.01963145    -0.73900
O1643       O  0.93584844  0.54283755  0.98750598    -0.74000
O1644       O  0.88894723  0.57614908  0.98454013    -0.74000
O1645       O  0.82013309  0.56879975  0.97516787    -0.74000
O1646       O  0.86880761  0.53488462  0.97657802    -0.73900
O1647       O  0.82722420  0.55063339  0.00890064    -0.73900
O1648       O  0.85886512  0.55316573  0.94269461    -0.74000
Ni1649     Ni  0.91422939  0.55969296  0.98640426     1.25400
Ni1650     Ni  0.84136796  0.55154216  0.97550816     1.25400
C1651       C  0.89785622  0.55729549  0.93648644     0.88300
C1652       C  0.85474762  0.55444186  0.02511004     0.88200
C1653       C  0.91088589  0.53340262  0.98208189     0.88200
C1654       C  0.84727260  0.57803389  0.97941975     0.88400
O1655       O  0.68093969  0.67992541  0.95476678    -0.73900
O1656       O  0.71032429  0.68241045  0.02246653    -0.73900
O1657       O  0.67081174  0.69775241  0.98937886    -0.74000
O1658       O  0.71803707  0.66442837  0.98788873    -0.74000
O1659       O  0.78711796  0.67173825  0.97895447    -0.74000
O1660       O  0.73855315  0.70563942  0.97947958    -0.73900
O1661       O  0.77841355  0.69003869  0.01245134    -0.73900
O1662       O  0.75008389  0.68721923  0.94596169    -0.74000
Ni1663     Ni  0.69256012  0.68088852  0.98901160     1.25400
Ni1664     Ni  0.76593927  0.68898689  0.97892878     1.25400
C1665       C  0.71158415  0.68292034  0.93931444     0.88300
C1666       C  0.75000890  0.68640208  0.02836637     0.88200
C1667       C  0.69616919  0.70714476  0.98428640     0.88200
C1668       C  0.75982190  0.66252116  0.98300598     0.88400
O1669       O  0.67070556  0.56156573  0.25584702    -0.73900
O1670       O  0.70125242  0.55982364  0.18807968    -0.73900
O1671       O  0.66087031  0.54420445  0.22047467    -0.74000
O1672       O  0.70845656  0.57741654  0.22347297    -0.74000
O1673       O  0.77734521  0.57001788  0.23242535    -0.74000
O1674       O  0.72835906  0.53614942  0.23029462    -0.73900
O1675       O  0.76904375  0.55204976  0.19814787    -0.73900
O1676       O  0.73970383  0.55415379  0.26452782    -0.74000
Ni1677     Ni  0.68288143  0.56100979  0.22157053     1.25400
Ni1678     Ni  0.75601872  0.55276847  0.23161522     1.25400
C1679       C  0.70108759  0.55832063  0.27125130     0.88300
C1680       C  0.74094774  0.55580561  0.18220935     0.88200
C1681       C  0.68596776  0.53474623  0.22537301     0.88200
C1682       C  0.75012322  0.57928002  0.22870079     0.88400
O1683       O  0.93024855  0.68036546  0.25937444    -0.73900
O1684       O  0.89852155  0.68200433  0.19199133    -0.73900
O1685       O  0.93932522  0.69769436  0.22395685    -0.74000
O1686       O  0.89161305  0.66449171  0.22743374    -0.74000
O1687       O  0.82284349  0.67198550  0.23643568    -0.74000
O1688       O  0.87219387  0.70581382  0.23432810    -0.73900
O1689       O  0.83103927  0.68995141  0.20224800    -0.73900
O1690       O  0.86144449  0.68776476  0.26860370    -0.74000
Ni1691     Ni  0.91734040  0.68088286  0.22529461     1.25400
Ni1692     Ni  0.84446518  0.68920628  0.23571358     1.25400
C1693       C  0.90025098  0.68357904  0.27500449     0.88300
C1694       C  0.85895001  0.68611372  0.18623877     0.88200
C1695       C  0.91439125  0.70718784  0.22894483     0.88200
C1696       C  0.84987374  0.66268757  0.23261536     0.88400
O1697       O  0.56420985  0.92984138  0.70925951    -0.73900
O1698       O  0.03032818  0.93067806  0.77660001    -0.73900
O1699       O  0.02671198  0.91339308  0.74062076    -0.74000
O1700       O  0.57035503  0.94693540  0.74543121    -0.74000
O1701       O  0.00283317  0.95458787  0.73460625    -0.74000
O1702       O  0.95751039  0.92038916  0.73114313    -0.73900
O1703       O  0.96241658  0.93811572  0.76584591    -0.73900
O1704       O  0.99484391  0.93673541  0.69987781    -0.74000
Ni1705     Ni  0.05037947  0.92997863  0.74338260     1.25400
Ni1706     Ni  0.97698590  0.93776860  0.73257568     1.25400
C1707       C  0.03414155  0.93291333  0.69355127     0.88300
C1708       C  0.98998100  0.93431898  0.78201875     0.88200
C1709       C  0.98538490  0.91129724  0.73500339     0.88200
C1710       C  0.54468968  0.95626078  0.74035989     0.88400
O1711       O  0.80655091  0.81042828  0.70319125    -0.73900
O1712       O  0.83697007  0.80884613  0.77088262    -0.73900
O1713       O  0.84504272  0.82622066  0.73535214    -0.74000
O1714       O  0.79607811  0.79323339  0.73877913    -0.74000
O1715       O  0.86306284  0.78490648  0.72878161    -0.74000
O1716       O  0.91377912  0.81855299  0.72679650    -0.73900
O1717       O  0.90431236  0.80069608  0.76096161    -0.73900
O1718       O  0.87534982  0.80287240  0.69442167    -0.74000
Ni1719     Ni  0.81872427  0.80994172  0.73742485     1.25400
Ni1720     Ni  0.89150502  0.80141273  0.72743877     1.25400
C1721       C  0.83686556  0.80714321  0.68774823     0.88300
C1722       C  0.87642508  0.80470634  0.77682155     0.88200
C1723       C  0.88695271  0.82790710  0.73047030     0.88200
C1724       C  0.82076251  0.78365824  0.73401288     0.88400
O1725       O  0.80507179  0.93040712  0.01187817    -0.73900
O1726       O  0.83998046  0.93171858  0.94480666    -0.73900
O1727       O  0.84575027  0.91448340  0.98063814    -0.74000
O1728       O  0.79675066  0.94748923  0.97586831    -0.74000
O1729       O  0.86285892  0.95587986  0.98726095    -0.74000
O1730       O  0.91392004  0.92228107  0.99003175    -0.73900
O1731       O  0.90621894  0.94016311  0.95584758    -0.73900
O1732       O  0.87334428  0.93797359  0.02173638    -0.74000
Ni1733     Ni  0.81945724  0.93076391  0.97789229     1.25400
Ni1734     Ni  0.89144309  0.93941393  0.98906575     1.25400
C1735       C  0.83442172  0.93375146  0.02777708     0.88300
C1736       C  0.87964167  0.93596004  0.93954945     0.88200
C1737       C  0.88748694  0.91287116  0.98592837     0.88200
C1738       C  0.82094154  0.95708480  0.98117574     0.88400
O1739       O  0.56052996  0.81124501  0.00731264    -0.73900
O1740       O  0.52794327  0.80956458  0.93989567    -0.73900
O1741       O  0.02143236  0.82711884  0.97537199    -0.74000
O1742       O  0.56916927  0.79386206  0.97179025    -0.74000
O1743       O  0.50197907  0.78581186  0.98226121    -0.74000
O1744       O  0.95285605  0.81956977  0.98467678    -0.73900
O1745       O  0.96049546  0.80167260  0.95036181    -0.73900
O1746       O  0.99182838  0.80381945  0.01664309    -0.74000
Ni1747     Ni  0.54720736  0.81070661  0.97318345     1.25400
Ni1748     Ni  0.97441430  0.80239311  0.98379266     1.25400
C1749       C  0.53070811  0.80798726  0.02302011     0.88300
C1750       C  0.98818369  0.80551942  0.93426254     0.88200
C1751       C  0.97974253  0.82887902  0.98069767     0.88200
C1752       C  0.54413361  0.78439662  0.97687098     0.88400
O1753       O  0.91546835  0.56180234  0.75435805    -0.73900
O1754       O  0.95208379  0.55981037  0.68739733    -0.73900
O1755       O  0.90774638  0.54441753  0.71876482    -0.74000
O1756       O  0.45710650  0.57738766  0.72288550    -0.74000
O1757       O  0.52474313  0.56963263  0.73332045    -0.74000
O1758       O  0.47355133  0.53606302  0.73062883    -0.73900
O1759       O  0.51815112  0.55158013  0.69917511    -0.73900
O1760       O  0.48329057  0.55416978  0.76478440    -0.74000
Ni1761     Ni  0.93069664  0.56111443  0.72038588     1.25400
Ni1762     Ni  0.50227194  0.55251750  0.73230068     1.25400
C1763       C  0.94441142  0.55852901  0.77052588     0.88300
C1764       C  0.49198614  0.55559110  0.68253119     0.88200
C1765       C  0.93164009  0.53485028  0.72456412     0.88200
C1766       C  0.49846362  0.57902707  0.72898386     0.88400
O1767       O  0.68820267  0.67855499  0.75814928    -0.73900
O1768       O  0.65340758  0.68071246  0.69110304    -0.73900
O1769       O  0.69763751  0.69594048  0.72277096    -0.74000
O1770       O  0.64632170  0.66318085  0.72643460    -0.74000
O1771       O  0.57880391  0.67121166  0.73638945    -0.74000
O1772       O  0.63180274  0.70454796  0.73399602    -0.73900
O1773       O  0.58732665  0.68918017  0.70233411    -0.73900
O1774       O  0.62060059  0.68651454  0.76812497    -0.74000
Ni1775     Ni  0.67378875  0.67932893  0.72416642     1.25400
Ni1776     Ni  0.60231097  0.68821876  0.73554855     1.25400
C1777       C  0.65903932  0.68192828  0.77411724     0.88300
C1778       C  0.61389172  0.68507194  0.68592465     0.88200
C1779       C  0.67391000  0.70560566  0.72823709     0.88200
C1780       C  0.60466665  0.66171401  0.73215497     0.88400
O1781       O  0.68052008  0.55919368  0.45244922    -0.73900
O1782       O  0.64634864  0.55858687  0.51987876    -0.73900
O1783       O  0.68852062  0.54243031  0.48912020    -0.74000
O1784       O  0.64128629  0.57548116  0.48327247    -0.74000
O1785       O  0.57263916  0.56794390  0.47413746    -0.74000
O1786       O  0.62192313  0.53413502  0.47834408    -0.73900
O1787       O  0.57946266  0.55042727  0.50921014    -0.73900
O1788       O  0.61188040  0.55168731  0.44322898    -0.74000
Ni1789     Ni  0.66661143  0.55916825  0.48659717     1.25400
Ni1790     Ni  0.59410022  0.55070459  0.47594330     1.25400
C1791       C  0.65063710  0.55587329  0.43679884     0.88300
C1792       C  0.60637338  0.55462784  0.52535404     0.88200
C1793       C  0.66391169  0.53285868  0.48422807     0.88200
C1794       C  0.59984614  0.57725850  0.47755109     0.88400
O1795       O  0.93091337  0.67972482  0.45549528    -0.73900
O1796       O  0.96618696  0.68115595  0.52249189    -0.73900
O1797       O  0.92542892  0.69714647  0.49106893    -0.74000
O1798       O  0.96920871  0.66358807  0.48699991    -0.74000
O1799       O  0.53818147  0.67044970  0.47670013    -0.74000
O1800       O  0.99281707  0.70471758  0.47976220    -0.73900
O1801       O  0.53402002  0.68844671  0.51119555    -0.73900
O1802       O  0.49996735  0.68662129  0.44541129    -0.74000
Ni1803     Ni  0.94551821  0.68017432  0.48945584     1.25400
Ni1804     Ni  0.51869321  0.68787154  0.47796480     1.25400
C1805       C  0.96054303  0.68270687  0.43949327     0.88300
C1806       C  0.50661146  0.68482854  0.52763208     0.88200
C1807       C  0.95098326  0.70643889  0.48557633     0.88200
C1808       C  0.51024213  0.66139954  0.48090010     0.88400
O1809       O  0.79812751  0.42873470  0.50597090    -0.73900
O1810       O  0.83344807  0.43046490  0.43899695    -0.73900
O1811       O  0.83864430  0.41295422  0.47452771    -0.74000
O1812       O  0.79052112  0.44599511  0.47039188    -0.74000
O1813       O  0.85670803  0.45426166  0.48195605    -0.74000
O1814       O  0.90680853  0.42057340  0.48444512    -0.73900
O1815       O  0.90008433  0.43857813  0.45026018    -0.73900
O1816       O  0.86640301  0.43618893  0.51613445    -0.74000
Ni1817     Ni  0.81280625  0.42927271  0.47203184     1.25400
Ni1818     Ni  0.88490614  0.43773358  0.48352303     1.25400
C1819       C  0.82733361  0.43199700  0.52200194     0.88300
C1820       C  0.87318587  0.43467594  0.43381807     0.88200
C1821       C  0.88008948  0.41123881  0.48033511     0.88200
C1822       C  0.81477524  0.45553328  0.47598700     0.88400
O1823       O  0.56518595  0.31108566  0.50443166    -0.73900
O1824       O  0.53051772  0.30917892  0.43740406    -0.73900
O1825       O  0.02427284  0.32667384  0.47285883    -0.74000
O1826       O  0.57384417  0.29375403  0.46893537    -0.74000
O1827       O  0.00784459  0.28538198  0.48053044    -0.74000
O1828       O  0.95628039  0.31890097  0.48266809    -0.73900
O1829       O  0.96415972  0.30086749  0.44861547    -0.73900
O1830       O  0.99699340  0.30351332  0.51445886    -0.74000
Ni1831     Ni  0.55085785  0.31043511  0.47046114     1.25400
Ni1832     Ni  0.97894715  0.30181505  0.48186705     1.25400
C1833       C  0.53580634  0.30784566  0.52039046     0.88300
C1834       C  0.99083545  0.30493603  0.43222789     0.88200
C1835       C  0.98270407  0.32829684  0.47858217     0.88200
C1836       C  0.54991253  0.28418942  0.47475313     0.88400
O1837       O  0.54938798  0.43102808  0.20171393    -0.73900
O1838       O  0.51643589  0.43247611  0.26904744    -0.73900
O1839       O  0.51089283  0.41500344  0.23343732    -0.74000
O1840       O  0.55727562  0.44833783  0.23727422    -0.74000
O1841       O  0.48997081  0.45625128  0.22670993    -0.74000
O1842       O  0.94196229  0.42228036  0.22416715    -0.73900
O1843       O  0.94885877  0.44022255  0.25852602    -0.73900
O1844       O  0.48041048  0.43821079  0.19226996    -0.74000
Ni1845     Ni  0.53591968  0.43146803  0.23577984     1.25400
Ni1846     Ni  0.96288500  0.43956813  0.22511155     1.25400
C1847       C  0.51946034  0.43415884  0.18599021     0.88300
C1848       C  0.97650332  0.43637898  0.27465145     0.88200
C1849       C  0.96934014  0.41307250  0.22808795     0.88200
C1850       C  0.53208927  0.45774757  0.23213971     0.88400
O1851       O  0.80772601  0.30985291  0.20171862    -0.73900
O1852       O  0.84246695  0.30855809  0.26889064    -0.73900
O1853       O  0.84598567  0.32607507  0.23331572    -0.74000
O1854       O  0.80175431  0.29250963  0.23745021    -0.74000
O1855       O  0.86918656  0.28489308  0.22627274    -0.74000
O1856       O  0.91507883  0.31907560  0.22356023    -0.73900
O1857       O  0.91013113  0.30107950  0.25776350    -0.73900
O1858       O  0.87688416  0.30295547  0.19188254    -0.74000
Ni1859     Ni  0.82202305  0.30948509  0.23576164     1.25400
Ni1860     Ni  0.89521977  0.30169440  0.22453415     1.25400
C1861       C  0.83751921  0.30684098  0.18579882     0.88300
C1862       C  0.88272617  0.30477935  0.27413181     0.88200
C1863       C  0.88734018  0.32817428  0.22776165     0.88200
C1864       C  0.82739499  0.28320414  0.23218601     0.88400
O1865       O  0.67953648  0.06030422  0.95674632    -0.73900
O1866       O  0.64388068  0.05813584  0.02358466    -0.73900
O1867       O  0.68642157  0.04269596  0.99181328    -0.74000
O1868       O  0.63930012  0.07595137  0.98858946    -0.74000
O1869       O  0.57097636  0.06857965  0.97830364    -0.74000
O1870       O  0.61991824  0.03469924  0.98005174    -0.73900
O1871       O  0.57693944  0.05032400  0.01204849    -0.73900
O1872       O  0.61113981  0.05307559  0.94623835    -0.74000
Ni1873     Ni  0.66467107  0.05952088  0.99062966     1.25400
Ni1874     Ni  0.59233952  0.05134039  0.97881690     1.25400
C1875       C  0.65034800  0.05725522  0.94055936     0.88300
C1876       C  0.60390787  0.05405548  0.02860494     0.88200
C1877       C  0.66180145  0.03326281  0.98603414     0.88200
C1878       C  0.59794245  0.07782211  0.98278423     0.88400
O1879       O  0.92909356  0.17971594  0.95922432    -0.73900
O1880       O  0.46503874  0.18129242  0.02621174    -0.73900
O1881       O  0.92143130  0.19695635  0.99510346    -0.74000
O1882       O  0.47017633  0.16393384  0.99037456    -0.74000
O1883       O  0.53819883  0.17164312  0.98042364    -0.74000
O1884       O  0.48745839  0.20527537  0.98343842    -0.73900
O1885       O  0.53138823  0.18954052  0.01483903    -0.73900
O1886       O  0.49724345  0.18726016  0.94911062    -0.74000
Ni1887     Ni  0.94402421  0.18022542  0.99319051     1.25400
Ni1888     Ni  0.51592345  0.18878338  0.98164453     1.25400
C1889       C  0.95840979  0.18290526  0.94319548     0.88300
C1890       C  0.50496256  0.18540900  0.03128384     0.88200
C1891       C  0.94550358  0.20651873  0.98941224     0.88200
C1892       C  0.51159520  0.16226742  0.98444351     0.88400
O1893       O  0.98450474  0.03498066  0.23644685    -0.73900
O1894       O  0.53822901  0.06824109  0.23730623    -0.73900
O1895       O  0.99778023  0.05319083  0.27008899    -0.74000
O1896       O  0.02747156  0.05007065  0.20377484    -0.74000
O1897       O  0.96116399  0.05862984  0.19326546    -0.74000
O1898       O  0.92982787  0.06110706  0.26069994    -0.73900
O1899       O  0.97040856  0.07633981  0.22820777    -0.73900
O1900       O  0.91839936  0.04358600  0.22574298    -0.74000
Ni1901     Ni  0.01434895  0.05127152  0.23721124     1.25400
Ni1902     Ni  0.94254310  0.06019219  0.22658153     1.25400
C1903       C  0.94218557  0.03392954  0.23116456     0.88300
C1904       C  0.01241159  0.07775868  0.23316256     0.88200
C1905       C  0.95945336  0.05773018  0.27640416     0.88200
C1906       C  0.00026583  0.05413689  0.18764200     0.88400
O1907       O  0.69415033  0.17879910  0.26043811    -0.73900
O1908       O  0.65785752  0.18032755  0.19352188    -0.73900
O1909       O  0.70153075  0.19604742  0.22462753    -0.74000
O1910       O  0.65272805  0.16291303  0.22918017    -0.74000
O1911       O  0.58483988  0.17067299  0.23923372    -0.74000
O1912       O  0.63530942  0.20426345  0.23629761    -0.73900
O1913       O  0.59153888  0.18853560  0.20505096    -0.73900
O1914       O  0.62604965  0.18631230  0.27074869    -0.74000
Ni1915     Ni  0.67900855  0.17925550  0.22651481     1.25400
Ni1916     Ni  0.60712133  0.18777985  0.23819716     1.25400
C1917       C  0.66515406  0.18213012  0.27654306     0.88300
C1918       C  0.61794132  0.18446649  0.18853179     0.88200
C1919       C  0.67711122  0.20557917  0.23009840     0.88200
C1920       C  0.61108336  0.16128384  0.23476336     0.88400
C1921       C  0.52878729  0.11035743  0.23511625     0.30300
C1922       C  0.51512930  0.12303498  0.23561745    -0.36000
C1923       C  0.55013994  0.13196902  0.23604794     0.16300
C1924       C  0.59542631  0.12862032  0.23572177     0.22100
C1925       C  0.60909170  0.11593107  0.23541933    -0.34200
C1926       C  0.57405609  0.10698722  0.23524588     0.16200
O1927       O  0.00167946  0.10051214  0.23437917    -0.26200
C1928       C  0.52980130  0.09069297  0.23424479     0.06000
C1929       C  0.57535468  0.09411237  0.23483927    -0.31100
O1930       O  0.62246994  0.13849848  0.23545039    -0.22900
C1931       C  0.59422277  0.14829424  0.23584698    -0.02900
C1932       C  0.54872570  0.14483045  0.23631545    -0.17300
H1933       H  0.97968667  0.12573244  0.23556320     0.20700
H1934       H  0.64453243  0.11323534  0.23520800     0.19100
H1935       H  0.60488774  0.08803481  0.23464653     0.19000
H1936       H  0.51912126  0.15088260  0.23627592     0.14900
C1937       C  0.52573519  0.18449868  0.09360025     0.30300
C1938       C  0.51536745  0.18454567  0.11826153    -0.36000
C1939       C  0.55263470  0.18437216  0.13401641     0.16300
C1940       C  0.59713300  0.18393440  0.12620069     0.22100
C1941       C  0.60750915  0.18397273  0.10153776    -0.34200
C1942       C  0.57025880  0.18438926  0.08578179     0.16200
O1943       O  0.49628309  0.18477996  0.07562758    -0.26200
C1944       C  0.52244195  0.18505459  0.05608861     0.06000
C1945       C  0.56864049  0.18484916  0.06135890    -0.31100
O1946       O  0.62658686  0.18377277  0.14418101    -0.22900
C1947       C  0.60047353  0.18429827  0.16372020    -0.02900
C1948       C  0.55429742  0.18469837  0.15843975    -0.17300
H1949       H  0.48070625  0.18483520  0.12473000     0.20700
H1950       H  0.64218373  0.18383355  0.09507255     0.19100
H1951       H  0.59694810  0.18491716  0.04890624     0.19000
H1952       H  0.52601269  0.18511620  0.17088295     0.14900
C1953       C  0.01682512  0.05430552  0.12494202     0.30300
C1954       C  0.00495899  0.05456876  0.10046521    -0.36000
C1955       C  0.54123634  0.05412733  0.08404850     0.16300
C1956       C  0.58616142  0.05368864  0.09112525     0.22100
C1957       C  0.59797418  0.05327261  0.11556064    -0.34200
C1958       C  0.56171824  0.05350107  0.13194176     0.16200
O1959       O  0.98859406  0.05469386  0.14347253    -0.26200
C1960       C  0.01592860  0.05393289  0.16250210     0.06000
C1961       C  0.56163371  0.05314278  0.15635877    -0.31100
O1962       O  0.61459199  0.05366375  0.07270557    -0.22900
C1963       C  0.58741815  0.05389831  0.05358902    -0.02900
C1964       C  0.54151598  0.05414462  0.05957219    -0.17300
H1965       H  0.96995185  0.05506689  0.09461852     0.20700
H1966       H  0.63298366  0.05279297  0.12140980     0.19100
H1967       H  0.59068291  0.05257941  0.16825615     0.19000
H1968       H  0.01258856  0.05449223  0.04756297     0.14900
C1969       C  0.58690976  0.11058570  0.98002371     0.30300
C1970       C  0.60250157  0.12310666  0.98008120    -0.36000
C1971       C  0.56887248  0.13244664  0.98006049     0.16300
C1972       C  0.52313986  0.12959155  0.98010676     0.22100
C1973       C  0.50756228  0.11707999  0.97963945    -0.34200
C1974       C  0.54117507  0.10774608  0.97955923     0.16200
O1975       O  0.61240423  0.10042289  0.98106843    -0.26200
C1976       C  0.58273834  0.09094694  0.98107417     0.06000
C1977       C  0.53781747  0.09490403  0.98002029    -0.31100
O1978       O  0.49756781  0.13972275  0.98141788    -0.22900
C1979       C  0.52714052  0.14920889  0.98202932    -0.02900
C1980       C  0.57213012  0.14529147  0.98106520    -0.17300
H1981       H  0.63831063  0.12539013  0.98060725     0.20700
H1982       H  0.97174215  0.11479433  0.97983669     0.09500
H1983       H  0.00734104  0.08919188  0.98023908     0.19000
H1984       H  0.60254851  0.15101609  0.98179039     0.14900
C1985       C  0.75018697  0.23156629  0.22592914     0.30300
C1986       C  0.79156545  0.23776766  0.22149548    -0.36000
C1987       C  0.79275204  0.25068884  0.22705324     0.16300
C1988       C  0.75562108  0.25700808  0.23625317     0.22100
C1989       C  0.71431064  0.25081857  0.24066709    -0.34200
C1990       C  0.71313727  0.23792007  0.23513102     0.16200
O1991       O  0.74185795  0.21947846  0.22254642    -0.26200
C1992       C  0.69890963  0.21806125  0.22958929     0.06000
C1993       C  0.67920785  0.22923463  0.23756300    -0.31100
O1994       O  0.76369291  0.26908561  0.23966525    -0.22900
C1995       C  0.80658067  0.27059386  0.23266533    -0.02900
C1996       C  0.82658342  0.25944990  0.22466586    -0.17300
H1997       H  0.82077020  0.23285172  0.21427023     0.20700
H1998       H  0.68509778  0.25573650  0.24788066     0.19100
H1999       H  0.64535031  0.23067072  0.24463936     0.19000
H2000       H  0.86046608  0.25808694  0.21757422     0.14900
C2001       C  0.95938854  0.38029073  0.22524955     0.30300
C2002       C  0.97558740  0.36784200  0.22497998    -0.36000
C2003       C  0.94245317  0.35836829  0.22499097     0.16300
C2004       C  0.89657599  0.36101227  0.22543129     0.22100
C2005       C  0.88035485  0.37347221  0.22542272    -0.34200
C2006       C  0.91351661  0.38295445  0.22523264     0.16200
O2007       O  0.48447275  0.39053897  0.22605042    -0.26200
C2008       C  0.95444390  0.39991245  0.22635699     0.06000
C2009       C  0.90963870  0.39579552  0.22574884    -0.31100
O2010       O  0.87160089  0.35073344  0.22629033    -0.22900
C2011       C  0.90176634  0.34138274  0.22619181    -0.02900
C2012       C  0.94647678  0.34554168  0.22529475    -0.17300
H2013       H  0.51151999  0.36570493  0.22506510     0.20700
H2014       H  0.84442950  0.37560952  0.22584026     0.19100
H2015       H  0.87893982  0.40140355  0.22625292     0.19000
H2016       H  0.97725324  0.33996142  0.22543309     0.14900
C2017       C  0.97185002  0.30526066  0.36980570     0.30300
C2018       C  0.98299103  0.30517377  0.34525348    -0.36000
C2019       C  0.94621830  0.30503497  0.32919305     0.16300
C2020       C  0.90145666  0.30518484  0.33661852     0.22100
C2021       C  0.89031159  0.30515345  0.36118072    -0.34200
C2022       C  0.92709649  0.30508880  0.37724842     0.16200
O2023       O  0.00075818  0.30533410  0.38801473    -0.26200
C2024       C  0.97403234  0.30501352  0.40732319     0.06000
C2025       C  0.92800052  0.30483523  0.40168355    -0.31100
O2026       O  0.87257684  0.30521275  0.31838417    -0.22900
C2027       C  0.89935708  0.30491111  0.29908631    -0.02900
C2028       C  0.94537101  0.30475628  0.30476885    -0.17300
H2029       H  0.51786361  0.30514532  0.33908841     0.20700
H2030       H  0.85544033  0.30511008  0.36734637     0.19100
H2031       H  0.89933941  0.30465701  0.41390211     0.19000
H2032       H  0.97407888  0.30458360  0.29258037     0.14900
C2033       C  0.95976646  0.43553584  0.33733297     0.30300
C2034       C  0.97173240  0.43527522  0.36179351    -0.36000
C2035       C  0.93549083  0.43520535  0.37824627     0.16300
C2036       C  0.89051080  0.43517755  0.37122546     0.22100
C2037       C  0.87856232  0.43557786  0.34679113    -0.34200
C2038       C  0.91477866  0.43584847  0.33036223     0.16200
O2039       O  0.98801447  0.43561798  0.31880028    -0.26200
C2040       C  0.96061339  0.43617475  0.29977409     0.06000
C2041       C  0.91480732  0.43636851  0.30593183    -0.31100
O2042       O  0.86218543  0.43486916  0.38969502    -0.22900
C2043       C  0.88947394  0.43487334  0.40878011    -0.02900
C2044       C  0.93534230  0.43511817  0.40272007    -0.17300
H2045       H  0.50680579  0.43517403  0.36760497     0.20700
H2046       H  0.84348950  0.43570980  0.34098113     0.19100
H2047       H  0.88570143  0.43668199  0.29403987     0.19000
H2048       H  0.96436966  0.43510624  0.41468135     0.14900
C2049       C  0.92351028  0.35684715  0.48319849     0.30300
C2050       C  0.88574107  0.36486240  0.48396706    -0.36000
C2051       C  0.89529980  0.37782620  0.48384824     0.16300
C2052       C  0.93891735  0.38262793  0.48335260     0.22100
C2053       C  0.97664291  0.37461877  0.48266553    -0.34200
C2054       C  0.96707586  0.36167034  0.48245091     0.16200
O2055       O  0.92266855  0.34439614  0.48224422    -0.26200
C2056       C  0.96628936  0.34128759  0.48068003     0.06000
C2057       C  0.99532498  0.35163685  0.48076201    -0.31100
O2058       O  0.93982849  0.39506994  0.48256136    -0.22900
C2059       C  0.89619768  0.39822645  0.48234485    -0.02900
C2060       C  0.86703022  0.38790458  0.48317337    -0.17300
H2061       H  0.85133935  0.36126051  0.48408347     0.20700
H2062       H  0.51100152  0.37822306  0.48178750     0.19100
H2063       H  0.53201016  0.35173515  0.47950298     0.19000
H2064       H  0.83027268  0.38785334  0.48286598     0.14900
C2065       C  0.70042985  0.50148582  0.47787000     0.30300
C2066       C  0.69876434  0.48888924  0.47017988    -0.36000
C2067       C  0.73864755  0.48185309  0.47342917     0.16300
C2068       C  0.77761645  0.48677060  0.48360449     0.22100
C2069       C  0.77926559  0.49936455  0.49133442    -0.34200
C2070       C  0.73939073  0.50641042  0.48804516     0.16200
O2071       O  0.66763175  0.50993986  0.47581851    -0.26200
C2072       C  0.68594965  0.52040401  0.48484573     0.06000
C2073       C  0.73040587  0.51871879  0.49276207    -0.31100
O2074       O  0.81061097  0.47835283  0.48532188    -0.22900
C2075       C  0.79238045  0.46793227  0.47605602    -0.02900
C2076       C  0.74780469  0.46960056  0.46835299    -0.17300
H2077       H  0.66860186  0.48486653  0.46210015     0.20700
H2078       H  0.80951112  0.50340476  0.49929459     0.19100
H2079       H  0.75334325  0.52569855  0.50019199     0.19000
H2080       H  0.72499103  0.46265765  0.46069337     0.14900
C2081       C  0.56370569  0.63204409  0.47415655     0.30300
C2082       C  0.59984983  0.62355450  0.47177394    -0.36000
C2083       C  0.58828656  0.61072212  0.47247572     0.16300
C2084       C  0.54422523  0.60644442  0.47502120     0.22100
C2085       C  0.50804169  0.61493913  0.47726503    -0.34200
C2086       C  0.51967727  0.62777632  0.47688319     0.16200
O2087       O  0.56678837  0.64447730  0.47498875    -0.26200
C2088       C  0.52414908  0.64816685  0.47845919     0.06000
C2089       C  0.49351185  0.63818621  0.47973566    -0.31100
O2090       O  0.54165188  0.59401196  0.47638312    -0.22900
C2091       C  0.58472256  0.59035472  0.47486695    -0.02900
C2092       C  0.61504394  0.60033550  0.47232389    -0.17300
H2093       H  0.63467040  0.62671803  0.47014656     0.20700
H2094       H  0.97341980  0.61177397  0.47980722     0.19100
H2095       H  0.95717063  0.63856396  0.48259331     0.19000
H2096       H  0.65173325  0.59998223  0.47128099     0.14900
C2097       C  0.59519297  0.68444477  0.62346171     0.30300
C2098       C  0.60649487  0.68408046  0.59893232    -0.36000
C2099       C  0.56987348  0.68436825  0.58277975     0.16300
C2100       C  0.52508449  0.68476555  0.59012240     0.22100
C2101       C  0.51379215  0.68524488  0.61465277    -0.34200
C2102       C  0.55045450  0.68516994  0.63079999     0.16200
O2103       O  0.62395121  0.68427084  0.64173451    -0.26200
C2104       C  0.59718937  0.68507993  0.66098099     0.06000
C2105       C  0.55124300  0.68569635  0.65523127    -0.31100
O2106       O  0.49633712  0.68484211  0.57183802    -0.22900
C2107       C  0.52323446  0.68467169  0.55258117    -0.02900
C2108       C  0.56920509  0.68439291  0.55833402    -0.17300
H2109       H  0.64138673  0.68367531  0.59284990     0.20700
H2110       H  0.47890964  0.68572283  0.62073186     0.19100
H2111       H  0.52253938  0.68626971  0.66737808     0.19000
H2112       H  0.59796951  0.68417084  0.54618661     0.14900
C2113       C  0.51366632  0.55587659  0.62021154     0.30300
C2114       C  0.50361153  0.55581037  0.59552521    -0.36000
C2115       C  0.54105894  0.55560829  0.57987158     0.16300
C2116       C  0.58551715  0.55568444  0.58776557     0.22100
C2117       C  0.59558405  0.55564520  0.61247742    -0.34200
C2118       C  0.55809077  0.55563353  0.62815105     0.16200
O2119       O  0.48395107  0.55598574  0.63809832    -0.26200
C2120       C  0.50979600  0.55562714  0.65773695     0.06000
C2121       C  0.55607684  0.55536537  0.65258730    -0.31100
O2122       O  0.61514534  0.55552646  0.56981213    -0.22900
C2123       C  0.58910327  0.55516877  0.55022922    -0.02900
C2124       C  0.54288199  0.55519060  0.55547242    -0.17300
H2125       H  0.46901306  0.55580845  0.58895835     0.20700
H2126       H  0.63017893  0.55551726  0.61904320     0.19100
H2127       H  0.58420798  0.55513467  0.66512789     0.19000
H2128       H  0.51463511  0.55495662  0.54300198     0.14900
C2129       C  0.54375619  0.63333791  0.73429032     0.30300
C2130       C  0.50568330  0.62543354  0.73308003    -0.36000
C2131       C  0.51469316  0.61243602  0.73297135     0.16300
C2132       C  0.55802289  0.60749537  0.73430513     0.22100
C2133       C  0.59604539  0.61539309  0.73558422    -0.34200
C2134       C  0.58708373  0.62837916  0.73535305     0.16200
O2135       O  0.54358426  0.64579871  0.73354579    -0.26200
C2136       C  0.58742791  0.64878097  0.73393663     0.06000
C2137       C  0.61591208  0.63833725  0.73509442    -0.31100
O2138       O  0.55851472  0.59504701  0.73337161    -0.22900
C2139       C  0.51492295  0.59202234  0.73121759    -0.02900
C2140       C  0.48619598  0.60244523  0.73090089    -0.17300
H2141       H  0.97153530  0.62914476  0.73175865     0.20700
H2142       H  0.63027007  0.61168397  0.73616438     0.19100
H2143       H  0.65266336  0.63813015  0.73527995     0.19000
H2144       H  0.94958839  0.60261627  0.72915971     0.14900
C2145       C  0.73682057  0.00774660  0.98887261     0.30300
C2146       C  0.77893166  0.00193102  0.99301465    -0.36000
C2147       C  0.78187186  0.98913587  0.98680241     0.16300
C2148       C  0.74569701  0.98254836  0.97723201     0.22100
C2149       C  0.70356049  0.98837751  0.97303416    -0.34200
C2150       C  0.70061019  0.00118869  0.97926471     0.16200
O2151       O  0.72709507  0.01967019  0.99294757    -0.26200
C2152       C  0.68406880  0.02084069  0.98596102     0.06000
C2153       C  0.66561979  0.00962147  0.97730283    -0.31100
O2154       O  0.75542616  0.97058207  0.97347667    -0.22900
C2155       C  0.79840168  0.96946131  0.98063629    -0.02900
C2156       C  0.81678266  0.98072797  0.98903727    -0.17300
H2157       H  0.80739393  0.00703909  0.00058305     0.20700
H2158       H  0.67504237  0.98325659  0.96555777     0.19100
H2159       H  0.63200328  0.00801468  0.97005282     0.19000
H2160       H  0.85026772  0.98237007  0.99643004     0.14900
C2161       C  0.96651418  0.86157207  0.98415294     0.30300
C2162       C  0.98115897  0.87417349  0.98482203    -0.36000
C2163       C  0.94686915  0.88329693  0.98627912     0.16300
C2164       C  0.90136671  0.88018054  0.98679475     0.22100
C2165       C  0.88673966  0.86758113  0.98635771    -0.34200
C2166       C  0.92103166  0.85846095  0.98510475     0.16200
O2167       O  0.99274307  0.85157291  0.98243158    -0.26200
C2168       C  0.96378805  0.84193164  0.98246149     0.06000
C2169       C  0.91863017  0.84561771  0.98415987    -0.31100
O2170       O  0.87501884  0.89018411  0.98713248    -0.22900
C2171       C  0.90389221  0.89984338  0.98706339    -0.02900
C2172       C  0.94916643  0.89616137  0.98665710    -0.17300
H2173       H  0.01675810  0.87667975  0.98404625     0.20700
H2174       H  0.85110851  0.86508146  0.98672173     0.19100
H2175       H  0.88859964  0.83972498  0.98436530     0.19000
H2176       H  0.97912205  0.90207131  0.98593810     0.14900
C2177       C  0.78651468  0.75197733  0.72953869     0.30300
C2178       C  0.79035303  0.73906484  0.72434010    -0.36000
C2179       C  0.75034889  0.73195298  0.72660393     0.16300
C2180       C  0.70933998  0.73711432  0.73358487     0.22100
C2181       C  0.70553084  0.75000803  0.73883234    -0.34200
C2182       C  0.74547506  0.75711616  0.73652278     0.16200
O2183       O  0.81921975  0.76049995  0.72806463    -0.26200
C2184       C  0.79868471  0.77120973  0.73424479     0.06000
C2185       C  0.75290274  0.76963043  0.73972030    -0.31100
O2186       O  0.67642827  0.72865799  0.73476006    -0.22900
C2187       C  0.69669177  0.71795128  0.72836389    -0.02900
C2188       C  0.74260758  0.71945917  0.72308286    -0.17300
H2189       H  0.82218821  0.73486501  0.71879429     0.20700
H2190       H  0.67364706  0.75421863  0.74427017     0.19100
H2191       H  0.72836902  0.77675514  0.74484424     0.19000
H2192       H  0.76694351  0.71231512  0.71779679     0.14900
C2193       C  0.93733728  0.80511608  0.83087772     0.30300
C2194       C  0.97664686  0.80539043  0.84518358    -0.36000
C2195       C  0.96965391  0.80557079  0.87016208     0.16300
C2196       C  0.92685719  0.80530238  0.88027940     0.22100
C2197       C  0.88752160  0.80520945  0.86596370    -0.34200
C2198       C  0.89450940  0.80521360  0.84097075     0.16200
O2199       O  0.93614075  0.80481142  0.80719051    -0.26200
C2200       C  0.89204529  0.80487853  0.80194334     0.06000
C2201       C  0.86437328  0.80519431  0.82224635    -0.31100
O2202       O  0.92813845  0.80517834  0.90398246    -0.22900
C2203       C  0.97225241  0.80552636  0.90918254    -0.02900
C2204       C  0.99981911  0.80585654  0.88884710    -0.17300
H2205       H  0.01031743  0.80544203  0.83736289     0.20700
H2206       H  0.85385219  0.80512306  0.87378393     0.19100
H2207       H  0.82766027  0.80523993  0.82306628     0.19000
H2208       H  0.03652163  0.80607623  0.88798407     0.14900
C2209       C  0.89976589  0.93406681  0.87732497     0.30300
C2210       C  0.88924261  0.93281428  0.85282241    -0.36000
C2211       C  0.92617473  0.93331628  0.83687941     0.16300
C2212       C  0.97059468  0.93473555  0.84439265     0.22100
C2213       C  0.98108080  0.93607998  0.86888902    -0.34200
C2214       C  0.94406460  0.93578355  0.88480405     0.16200
O2215       O  0.87061685  0.93390264  0.89543722    -0.26200
C2216       C  0.89668469  0.93570562  0.91469183     0.06000
C2217       C  0.94253889  0.93696336  0.90911473    -0.31100
O2218       O  0.99969559  0.93500886  0.82625382    -0.22900
C2219       C  0.97331625  0.93391980  0.80692539    -0.02900
C2220       C  0.92741521  0.93284391  0.81248233    -0.17300
H2221       H  0.85467304  0.93164789  0.84659249     0.20700
H2222       H  0.01559451  0.93739215  0.87510073     0.19100
H2223       H  0.97077484  0.93835448  0.92131798     0.19000
H2224       H  0.89902407  0.93192765  0.80021804     0.14900
C2225       C  0.92916826  0.88236545  0.72938578     0.30300
C2226       C  0.89198987  0.87422117  0.72734990    -0.36000
C2227       C  0.90205758  0.86131220  0.72781922     0.16300
C2228       C  0.94567156  0.85664363  0.72987732     0.22100
C2229       C  0.98293947  0.86480246  0.73189427    -0.34200
C2230       C  0.97280347  0.87773823  0.73167821     0.16200
O2231       O  0.92747012  0.89479852  0.73002529    -0.26200
C2232       C  0.97057345  0.89815319  0.73290372     0.06000
C2233       C  0.00024339  0.88794786  0.73404009    -0.31100
O2234       O  0.94683048  0.84418631  0.73055458    -0.22900
C2235       C  0.90332187  0.84092846  0.72907626    -0.02900
C2236       C  0.87409018  0.85118101  0.72731778    -0.17300
H2237       H  0.85753909  0.87769869  0.72593301     0.20700
H2238       H  0.01727946  0.86132332  0.73392088     0.19100
H2239       H  0.53672280  0.88805748  0.73643425     0.19000
H2240       H  0.83738399  0.85115370  0.72624547     0.14900
C2241       C  0.94383446  0.68099688  0.33346837     0.30300
C2242       C  0.97722348  0.68063649  0.35139536    -0.36000
C2243       C  0.96134677  0.68072108  0.37519833     0.16300
C2244       C  0.91578818  0.68092527  0.38111869     0.22100
C2245       C  0.88237036  0.68127680  0.36317347    -0.34200
C2246       C  0.89827648  0.68141246  0.33935099     0.16200
O2247       O  0.95099545  0.68148800  0.31001241    -0.26200
C2248       C  0.90945405  0.68236861  0.30083687     0.06000
C2249       C  0.87541363  0.68236391  0.31822387    -0.31100
O2250       O  0.90882935  0.68134601  0.40462117    -0.22900
C2251       C  0.95055583  0.68154804  0.41373177    -0.02900
C2252       C  0.98442843  0.68115766  0.39628184    -0.17300
H2253       H  0.51308339  0.68060629  0.34710715     0.20700
H2254       H  0.84655536  0.68173387  0.36747154     0.19100
H2255       H  0.83907673  0.68308313  0.31562789     0.19000
H2256       H  0.52087034  0.68139297  0.39881069     0.14900
C2257       C  0.66035386  0.55947452  0.33053934     0.30300
C2258       C  0.62817333  0.55878438  0.34907375    -0.36000
C2259       C  0.64562204  0.55838817  0.37256401     0.16300
C2260       C  0.69148960  0.55885955  0.37767373     0.22100
C2261       C  0.72369028  0.55953750  0.35912835    -0.34200
C2262       C  0.70626512  0.55972717  0.33560777     0.16200
O2263       O  0.65181344  0.55933132  0.30717279    -0.26200
C2264       C  0.69287988  0.55936681  0.29723588     0.06000
C2265       C  0.72790267  0.55962599  0.31404888    -0.31100
O2266       O  0.70005735  0.55818927  0.40101861    -0.22900
C2267       C  0.65906185  0.55712586  0.41085137    -0.02900
C2268       C  0.62408534  0.55719469  0.39400655    -0.17300
H2269       H  0.59211003  0.55829404  0.34543317     0.20700
H2270       H  0.75980153  0.55963111  0.36274072     0.19100
H2271       H  0.76414852  0.55947342  0.31079710     0.19000
H2272       H  0.58790623  0.55643453  0.39716390     0.14900
C2273       C  0.61123007  0.50908506  0.22463650     0.30300
C2274       C  0.56877924  0.50315088  0.22229559    -0.36000
C2275       C  0.56788170  0.49015164  0.22698593     0.16300
C2276       C  0.60623619  0.48351735  0.23353663     0.22100
C2277       C  0.64865518  0.48945241  0.23589898    -0.34200
C2278       C  0.64956764  0.50244132  0.23117577     0.16200
O2279       O  0.61959263  0.52116008  0.22136402    -0.26200
C2280       C  0.66384041  0.52231177  0.22579830     0.06000
C2281       C  0.68440912  0.51095742  0.23199830    -0.31100
O2282       O  0.59802692  0.47142484  0.23661903    -0.22900
C2283       C  0.55386620  0.47023296  0.23202827    -0.02900
C2284       C  0.53316853  0.48159230  0.22593943    -0.17300
H2285       H  0.53861296  0.50831435  0.21713765     0.20700
H2286       H  0.67884924  0.48428178  0.24098293     0.19100
H2287       H  0.71949682  0.50928171  0.23680812     0.19000
H2288       H  0.49812902  0.48323856  0.22099513     0.14900
C2289       C  0.80771631  0.60811407  0.23388379     0.30300
C2290       C  0.84509981  0.61624679  0.23545759    -0.36000
C2291       C  0.83512967  0.62918693  0.23532200     0.16300
C2292       C  0.79143898  0.63387578  0.23404803     0.22100
C2293       C  0.75403643  0.62574065  0.23253984    -0.34200
C2294       C  0.76405252  0.61280062  0.23236677     0.16200
O2295       O  0.80912702  0.59566211  0.23297870    -0.26200
C2296       C  0.76577575  0.59238221  0.23068050     0.06000
C2297       C  0.73632563  0.60264752  0.23021881    -0.31100
O2298       O  0.79024473  0.64633566  0.23346041    -0.22900
C2299       C  0.83380389  0.64961199  0.23417810    -0.02900
C2300       C  0.86313083  0.63934259  0.23539383    -0.17300
H2301       H  0.87958997  0.61274484  0.23624074     0.20700
H2302       H  0.71962585  0.62924607  0.23110199     0.19100
H2303       H  0.69972292  0.60261401  0.22842353     0.19000
H2304       H  0.89988154  0.63937455  0.23581500     0.14900
C2305       C  0.67097148  0.67978373  0.88029012     0.30300
C2306       C  0.63851445  0.67952537  0.86189058    -0.36000
C2307       C  0.65556578  0.67947112  0.83831960     0.16300
C2308       C  0.70138772  0.67944057  0.83300102     0.22100
C2309       C  0.73392788  0.67964819  0.85143875    -0.34200
C2310       C  0.71683281  0.67993352  0.87505660     0.16200
O2311       O  0.66258695  0.68054443  0.90361796    -0.26200
C2312       C  0.70365321  0.68132550  0.91340156     0.06000
C2313       C  0.73860169  0.68097421  0.89651450    -0.31100
O2314       O  0.70943840  0.67993134  0.80957276    -0.22900
C2315       C  0.66812267  0.68041732  0.79993904    -0.02900
C2316       C  0.63350723  0.68012469  0.81696673    -0.17300
H2317       H  0.60245984  0.67975140  0.86566340     0.20700
H2318       H  0.76996628  0.67997048  0.84765035     0.19100
H2319       H  0.77481575  0.68161325  0.89962953     0.19000
H2320       H  0.59722295  0.68064151  0.81400309     0.14900
C2321       C  0.61766250  0.75848205  0.97495385     0.30300
C2322       C  0.65968437  0.75239538  0.97200725    -0.36000
C2323       C  0.66052281  0.73947272  0.97743679     0.16300
C2324       C  0.62247862  0.73303282  0.98515096     0.22100
C2325       C  0.58046007  0.73911292  0.98806773    -0.34200
C2326       C  0.57964051  0.75203281  0.98267232     0.16200
O2327       O  0.60958205  0.77055965  0.97146537    -0.26200
C2328       C  0.56582480  0.77190282  0.97694561     0.06000
C2329       C  0.54530490  0.76067342  0.98401991    -0.31100
O2330       O  0.63062455  0.72098673  0.98890974    -0.22900
C2331       C  0.67446031  0.71963725  0.98362523    -0.02900
C2332       C  0.69497560  0.73084253  0.97638429    -0.17300
H2333       H  0.68965108  0.75740756  0.96600936     0.20700
H2334       H  0.55053730  0.73411223  0.99416299     0.19100
H2335       H  0.51064808  0.75917364  0.98984701     0.19000
H2336       H  0.72974424  0.73234314  0.97075231     0.14900
C2337       C  0.81007048  0.68625584  0.08265716     0.30300
C2338       C  0.84910208  0.68582008  0.09715204    -0.36000
C2339       C  0.84166759  0.68595312  0.12209084     0.16300
C2340       C  0.79874563  0.68666870  0.13198322     0.22100
C2341       C  0.75968856  0.68694252  0.11748772    -0.34200
C2342       C  0.76709004  0.68661370  0.09254799     0.16200
O2343       O  0.80926621  0.68626349  0.05896351    -0.26200
C2344       C  0.76525956  0.68646402  0.05353221     0.06000
C2345       C  0.73725664  0.68661878  0.07370423    -0.31100
O2346       O  0.79960051  0.68692244  0.15567734    -0.22900
C2347       C  0.84353926  0.68621064  0.16110102    -0.02900
C2348       C  0.87144164  0.68552396  0.14092808    -0.17300
H2349       H  0.88287518  0.68538442  0.08950000     0.20700
H2350       H  0.72591356  0.68735313  0.12514077     0.19100
H2351       H  0.70054047  0.68684203  0.07435876     0.19000
H2352       H  0.90810489  0.68492621  0.14026524     0.14900
C2353       C  0.89348508  0.55964939  0.87370035     0.30300
C2354       C  0.87222564  0.55989980  0.85105113    -0.36000
C2355       C  0.90121623  0.56036566  0.83103466     0.16300
C2356       C  0.94787655  0.56043718  0.83329413     0.22100
C2357       C  0.96910695  0.56042298  0.85593384    -0.34200
C2358       C  0.94012377  0.56007583  0.87593633     0.16200
O2359       O  0.87296201  0.55868001  0.89467585    -0.26200
C2360       C  0.90675820  0.55863068  0.91059620     0.06000
C2361       C  0.94941502  0.55955426  0.90001770    -0.31100
O2362       O  0.96855928  0.56002596  0.81232030    -0.22900
C2363       C  0.93488275  0.55984556  0.79634477    -0.02900
C2364       C  0.89207160  0.56014758  0.80688995    -0.17300
H2365       H  0.83567807  0.55949678  0.84917739     0.20700
H2366       H  0.00568861  0.56040796  0.85778887     0.19100
H2367       H  0.98229171  0.55947001  0.90872047     0.19000
H2368       H  0.85928777  0.55969431  0.79813130     0.14900
C2369       C  0.79250524  0.55503960  0.07883281     0.30300
C2370       C  0.75298208  0.55557882  0.09300943    -0.36000
C2371       C  0.75961498  0.55570024  0.11803629     0.16300
C2372       C  0.80225506  0.55513028  0.12826699     0.22100
C2373       C  0.84174973  0.55476162  0.11410612    -0.34200
C2374       C  0.83514836  0.55482947  0.08911019     0.16200
O2375       O  0.79415114  0.55478451  0.05513233    -0.26200
C2376       C  0.83837143  0.55457026  0.05011537     0.06000
C2377       C  0.86562613  0.55465446  0.07055531    -0.31100
O2378       O  0.80074548  0.55504115  0.15194475    -0.22900
C2379       C  0.75666389  0.55571485  0.15708100    -0.02900
C2380       C  0.72928212  0.55621752  0.13668568    -0.17300
H2381       H  0.71944828  0.55588592  0.08506579     0.20700
H2382       H  0.87528328  0.55444974  0.12205091     0.19100
H2383       H  0.90231601  0.55448375  0.07156822     0.19000
H2384       H  0.69262231  0.55670360  0.13575919     0.14900
C2385       C  0.77142188  0.62974242  0.98070544     0.30300
C2386       C  0.75605290  0.61720293  0.98044015    -0.36000
C2387       C  0.78978840  0.60791487  0.97912629     0.16300
C2388       C  0.83545917  0.61081648  0.97836845     0.22100
C2389       C  0.85080754  0.62335835  0.97838543    -0.34200
C2390       C  0.81705554  0.63264711  0.97950498     0.16200
O2391       O  0.74577090  0.63986698  0.98218235    -0.26200
C2392       C  0.77522879  0.64939014  0.98176371     0.06000
C2393       C  0.82016443  0.64549445  0.98003343    -0.31100
O2394       O  0.86120400  0.60068316  0.97811416    -0.22900
C2395       C  0.83174525  0.59115924  0.97848133    -0.02900
C2396       C  0.78671400  0.59506209  0.97899983    -0.17300
H2397       H  0.72032077  0.61486273  0.98137364     0.20700
H2398       H  0.88656755  0.62569575  0.97778463     0.19100
H2399       H  0.85050027  0.65125788  0.97948916     0.19000
H2400       H  0.75640317  0.58929853  0.97984367     0.14900
C2401       C  0.91585611  0.18052805  0.88433315     0.30300
C2402       C  0.88342388  0.18096514  0.86587708    -0.36000
C2403       C  0.90053845  0.18064994  0.84227375     0.16300
C2404       C  0.94628383  0.17974177  0.83704138     0.22100
C2405       C  0.97866342  0.17926771  0.85548072    -0.34200
C2406       C  0.96162335  0.17980781  0.87905224     0.16200
O2407       O  0.90784435  0.18138812  0.90772635    -0.26200
C2408       C  0.94915422  0.18136110  0.91739295     0.06000
C2409       C  0.98372064  0.18037555  0.90041766    -0.31100
O2410       O  0.95471183  0.18002393  0.81365956    -0.22900
C2411       C  0.91378770  0.18126321  0.80386423    -0.02900
C2412       C  0.87892996  0.18167364  0.82079941    -0.17300
H2413       H  0.84749569  0.18186075  0.86962439     0.20700
H2414       H  0.01470524  0.17888295  0.85172408     0.19100
H2415       H  0.52004057  0.18034026  0.90342460     0.19000
H2416       H  0.84286460  0.18278907  0.81769448     0.14900
C2417       C  0.70564579  0.05966600  0.83818062     0.30300
C2418       C  0.72571276  0.05967870  0.86110858    -0.36000
C2419       C  0.69569004  0.05971999  0.88068484     0.16300
C2420       C  0.64914595  0.05962685  0.87779991     0.22100
C2421       C  0.62907333  0.05986862  0.85486857    -0.34200
C2422       C  0.65911228  0.05994232  0.83528663     0.16200
O2423       O  0.72731140  0.05898172  0.81749989    -0.26200
C2424       C  0.69436781  0.05897605  0.80110536     0.06000
C2425       C  0.65112650  0.05965421  0.81106602    -0.31100
O2426       O  0.62749076  0.05887727  0.89847887    -0.22900
C2427       C  0.66048573  0.05863851  0.91484604    -0.02900
C2428       C  0.70371777  0.05923534  0.90487864    -0.17300
H2429       H  0.76216802  0.05939248  0.86349496     0.20700
H2430       H  0.59260700  0.05972603  0.85247645     0.19100
H2431       H  0.61873030  0.05947435  0.80187429     0.19000
H2432       H  0.73612428  0.05888315  0.91403932     0.14900
C2433       C  0.65487986  0.00293509  0.73775062     0.30300
C2434       C  0.65726707  0.99046710  0.74600268    -0.36000
C2435       C  0.61782583  0.98321393  0.74310229     0.16300
C2436       C  0.57856162  0.98780407  0.73273515     0.22100
C2437       C  0.57612936  0.00031008  0.72451268    -0.34200
C2438       C  0.61563690  0.00758789  0.72745038     0.16200
O2439       O  0.68744567  0.01147656  0.73915975    -0.26200
C2440       C  0.66878136  0.02174424  0.72962362     0.06000
C2441       C  0.62423207  0.01985650  0.72199999    -0.31100
O2442       O  0.54636233  0.97912944  0.73106853    -0.22900
C2443       C  0.56545264  0.96889200  0.74057184    -0.02900
C2444       C  0.60972639  0.97094169  0.74840745    -0.17300
H2445       H  0.68776524  0.98667089  0.75409998     0.20700
H2446       H  0.54570626  0.00408827  0.71630836     0.19100
H2447       H  0.60112869  0.02665903  0.71417754     0.19000
H2448       H  0.63320139  0.96419648  0.75610395     0.14900
C2449       C  0.84105640  0.12907035  0.73671177     0.30300
C2450       C  0.85517173  0.11642717  0.73612683    -0.36000
C2451       C  0.82043862  0.10740082  0.73631701     0.16300
C2452       C  0.77505934  0.11065667  0.73681902     0.22100
C2453       C  0.76098699  0.12328211  0.73766479    -0.34200
C2454       C  0.79568016  0.13229528  0.73767411     0.16200
O2455       O  0.86767689  0.13902004  0.73600343    -0.26200
C2456       C  0.83904247  0.14872240  0.73670629     0.06000
C2457       C  0.79374868  0.14514020  0.73786443    -0.31100
O2458       O  0.74823918  0.10076294  0.73604199    -0.22900
C2459       C  0.77666780  0.09103071  0.73527038    -0.02900
C2460       C  0.82213079  0.09454303  0.73549231    -0.17300
H2461       H  0.89067988  0.11382824  0.73532787     0.20700
H2462       H  0.72546028  0.12588596  0.73802575     0.19100
H2463       H  0.76392217  0.15110462  0.73821095     0.19000
H2464       H  0.85182524  0.08854159  0.73462009     0.14900
C2465       C  0.96382018  0.05978134  0.33918578     0.30300
C2466       C  0.98475074  0.05954927  0.36190873    -0.36000
C2467       C  0.95556272  0.06032504  0.38180225     0.16300
C2468       C  0.90901397  0.06113451  0.37935974     0.22100
C2469       C  0.88818755  0.06163342  0.35666193    -0.34200
C2470       C  0.91737252  0.06096352  0.33679534     0.16200
O2471       O  0.98437690  0.05856726  0.31826682    -0.26200
C2472       C  0.95078827  0.05912468  0.30226692     0.06000
C2473       C  0.90828459  0.06068475  0.31270924    -0.31100
O2474       O  0.88790663  0.06078460  0.40020599    -0.22900
C2475       C  0.92123947  0.05990744  0.41627225    -0.02900
C2476       C  0.96423223  0.05970250  0.40594545    -0.17300
H2477       H  0.02111455  0.05852775  0.36392056     0.20700
H2478       H  0.85168753  0.06217579  0.35465536     0.19100
H2479       H  0.87554442  0.06113900  0.30390484     0.19000
H2480       H  0.99671207  0.05862177  0.41481835     0.14900
C2481       C  0.84213753  0.05558452  0.59197947     0.30300
C2482       C  0.85285312  0.05528293  0.61657815    -0.36000
C2483       C  0.81583154  0.05520998  0.63249677     0.16300
C2484       C  0.77122432  0.05566154  0.62489391     0.22100
C2485       C  0.76048198  0.05586507  0.60027105    -0.34200
C2486       C  0.79752375  0.05568977  0.58432994     0.16200
O2487       O  0.87138275  0.05557580  0.57390983    -0.26200
C2488       C  0.84505750  0.05547298  0.55445111     0.06000
C2489       C  0.79889327  0.05551738  0.55986596    -0.31100
O2490       O  0.74206722  0.05566802  0.64302308    -0.22900
C2491       C  0.76849007  0.05500878  0.66242280    -0.02900
C2492       C  0.81456991  0.05468295  0.65691817    -0.17300
H2493       H  0.88761292  0.05500755  0.62287637     0.20700
H2494       H  0.72571311  0.05603186  0.59397019     0.19100
H2495       H  0.77047747  0.05552835  0.54749745     0.19000
H2496       H  0.84304878  0.05425968  0.66921747     0.14900
C2497       C  0.71836759  0.18129688  0.37933750     0.30300
C2498       C  0.73908140  0.18102712  0.35654979    -0.36000
C2499       C  0.70958647  0.18064905  0.33676029     0.16300
C2500       C  0.66297586  0.18068267  0.33935087     0.22100
C2501       C  0.64229193  0.18071996  0.36212991    -0.34200
C2502       C  0.67176837  0.18096773  0.38190520     0.16200
O2503       O  0.73940239  0.18220716  0.40016072    -0.26200
C2504       C  0.70595594  0.18231674  0.41629317     0.06000
C2505       C  0.66304377  0.18147692  0.40603469    -0.31100
O2506       O  0.64179686  0.18105547  0.31852968    -0.22900
C2507       C  0.67511107  0.18109501  0.30233315    -0.02900
C2508       C  0.71816095  0.18076515  0.31257067    -0.17300
H2509       H  0.77559505  0.18133008  0.35441293     0.20700
H2510       H  0.60576039  0.18079471  0.36425549     0.19100
H2511       H  0.63037817  0.18163429  0.41497240     0.19000
H2512       H  0.75075447  0.18105421  0.30357266     0.14900
C2513       C  0.66551988  0.23853613  0.48010295     0.30300
C2514       C  0.66695201  0.25095359  0.47141735    -0.36000
C2515       C  0.62692500  0.25800319  0.47411547     0.16300
C2516       C  0.58808594  0.25325438  0.48470891     0.22100
C2517       C  0.58671922  0.24085813  0.49349592    -0.34200
C2518       C  0.62669997  0.23379616  0.49073387     0.16200
O2519       O  0.69832882  0.23005755  0.47851985    -0.26200
C2520       C  0.68016332  0.21976566  0.48829902     0.06000
C2521       C  0.63580577  0.22158913  0.49627518    -0.31100
O2522       O  0.55485519  0.26162663  0.48570453    -0.22900
C2523       C  0.57274116  0.27185453  0.47554924    -0.02900
C2524       C  0.61740705  0.27011142  0.46800408    -0.17300
H2525       H  0.69699943  0.25481745  0.46294434     0.20700
H2526       H  0.55653843  0.23695942  0.50177478     0.19100
H2527       H  0.61295585  0.21474074  0.50419168     0.19000
H2528       H  0.64003252  0.27692462  0.45980075     0.14900
C2529       C  0.77810452  0.18539513  0.59279901     0.30300
C2530       C  0.76635084  0.18498342  0.61724590    -0.36000
C2531       C  0.80269895  0.18497851  0.63355701     0.16300
C2532       C  0.84765052  0.18514959  0.62645982     0.22100
C2533       C  0.85940453  0.18568648  0.60199550    -0.34200
C2534       C  0.82301105  0.18589914  0.58567670     0.16200
O2535       O  0.74964023  0.18545245  0.57441232    -0.26200
C2536       C  0.77675911  0.18619119  0.55530808     0.06000
C2537       C  0.82264983  0.18652939  0.56125190    -0.31100
O2538       O  0.87605120  0.18496990  0.64490377    -0.22900
C2539       C  0.84872856  0.18485445  0.66399056    -0.02900
C2540       C  0.80287755  0.18487871  0.65797464    -0.17300
H2541       H  0.73133103  0.18474793  0.62315522     0.20700
H2542       H  0.89441798  0.18599007  0.59609093     0.19100
H2543       H  0.85156873  0.18697781  0.54923291     0.19000
H2544       H  0.77384509  0.18478736  0.66994924     0.14900
C2545       C  0.77995185  0.13032198  0.48083020     0.30300
C2546       C  0.76465164  0.11778103  0.48060566    -0.36000
C2547       C  0.79849258  0.10851294  0.48022569     0.16300
C2548       C  0.84415797  0.11145278  0.48024847     0.22100
C2549       C  0.85944919  0.12399236  0.48013609    -0.34200
C2550       C  0.82561072  0.13325836  0.48036443     0.16200
O2551       O  0.75419365  0.14041913  0.48201707    -0.26200
C2552       C  0.78359284  0.14995216  0.48211249     0.06000
C2553       C  0.82863103  0.14610467  0.48099971    -0.31100
O2554       O  0.86996258  0.10135958  0.48108341    -0.22900
C2555       C  0.84059698  0.09182138  0.48139535    -0.02900
C2556       C  0.79551797  0.09566116  0.48073511    -0.17300
H2557       H  0.72889648  0.11542916  0.48109167     0.20700
H2558       H  0.89521602  0.12634303  0.48027443     0.19100
H2559       H  0.85894295  0.15188458  0.48122269     0.19000
H2560       H  0.76523463  0.08987719  0.48133146     0.14900
C2561       C  0.82181165  0.30931923  0.07957274     0.30300
C2562       C  0.85509218  0.30904285  0.09759386    -0.36000
C2563       C  0.83904489  0.30886311  0.12139099     0.16300
C2564       C  0.79346209  0.30914112  0.12722930     0.22100
C2565       C  0.76016955  0.30940026  0.10920236    -0.34200
C2566       C  0.77620515  0.30938439  0.08539109     0.16200
O2567       O  0.82901022  0.30894667  0.05608069    -0.26200
C2568       C  0.78739967  0.30863898  0.04682163     0.06000
C2569       C  0.75334462  0.30890411  0.06420193    -0.31100
O2570       O  0.78625938  0.30867567  0.15072270    -0.22900
C2571       C  0.82784552  0.30796281  0.15994207    -0.02900
C2572       C  0.86186593  0.30803844  0.14253534    -0.17300
H2573       H  0.89095525  0.30869959  0.09336817     0.20700
H2574       H  0.72428271  0.30933369  0.11341881     0.19100
H2575       H  0.71694899  0.30853275  0.06156100     0.19000
H2576       H  0.89823690  0.30746031  0.14513429     0.14900
C2577       C  0.90834754  0.23767929  0.98064006     0.30300
C2578       C  0.91020004  0.25017377  0.97236528    -0.36000
C2579       C  0.87003860  0.25720597  0.97470861     0.16300
C2580       C  0.83063754  0.25235167  0.98451323     0.22100
C2581       C  0.82878231  0.23985920  0.99278085    -0.34200
C2582       C  0.86895407  0.23283386  0.99046660     0.16200
O2583       O  0.94147174  0.22926822  0.97961969    -0.26200
C2584       C  0.92296158  0.21891720  0.98899546     0.06000
C2585       C  0.87800733  0.22062920  0.99608125    -0.31100
O2586       O  0.79748939  0.26075137  0.98552039    -0.22900
C2587       C  0.81600157  0.27111267  0.97619808    -0.02900
C2588       C  0.86097455  0.26941821  0.96913039    -0.17300
H2589       H  0.94076520  0.25413755  0.96461375     0.20700
H2590       H  0.79821175  0.23589422  0.00052438     0.19100
H2591       H  0.85485515  0.21372753  0.00357075     0.19000
H2592       H  0.88408242  0.27632427  0.96161715     0.14900
C2593       C  0.56972735  0.43077769  0.08297818     0.30300
C2594       C  0.59093773  0.43122131  0.10558954    -0.36000
C2595       C  0.56190708  0.43153797  0.12555403     0.16300
C2596       C  0.51523681  0.43155098  0.12331090     0.22100
C2597       C  0.49402133  0.43088397  0.10069536    -0.34200
C2598       C  0.52307498  0.43044353  0.08071824     0.16200
O2599       O  0.59038546  0.43104017  0.06200632    -0.26200
C2600       C  0.55670825  0.43072814  0.04605126     0.06000
C2601       C  0.51392922  0.43024952  0.05659168    -0.31100
O2602       O  0.49461137  0.43247582  0.14425503    -0.22900
C2603       C  0.52840885  0.43290418  0.16013933    -0.02900
C2604       C  0.57114361  0.43228812  0.14959773    -0.17300
H2605       H  0.62750417  0.43152388  0.10744485     0.20700
H2606       H  0.45744725  0.43092425  0.09881332     0.19100
H2607       H  0.48112288  0.43026925  0.04781543     0.19000
H2608       H  0.60399237  0.43265526  0.15830614     0.14900
C2609       C  0.52099030  0.48654515  0.97926180     0.30300
C2610       C  0.52461523  0.49925073  0.98611223    -0.36000
C2611       C  0.98515667  0.50655660  0.98354590     0.16300
C2612       C  0.94477444  0.50178493  0.97478092     0.22100
C2613       C  0.94116964  0.48907643  0.96787684    -0.34200
C2614       C  0.48064060  0.48175996  0.97047464     0.16200
O2615       O  0.55318034  0.47788390  0.98087302    -0.26200
C2616       C  0.53311473  0.46741461  0.97296340     0.06000
C2617       C  0.48807906  0.46930705  0.96619590    -0.31100
O2618       O  0.91241518  0.51042734  0.97355548    -0.22900
C2619       C  0.93247233  0.52085514  0.98170223    -0.02900
C2620       C  0.97762960  0.51895675  0.98819503    -0.17300
H2621       H  0.55592221  0.50315954  0.99309387     0.20700
H2622       H  0.90978928  0.48515053  0.96102443     0.19100
H2623       H  0.46388213  0.46239184  0.95973870     0.19000
H2624       H  0.00177481  0.52582629  0.99488151     0.14900
C2625       C  0.67807960  0.38177365  0.98177970     0.30300
C2626       C  0.71617251  0.37387456  0.98170307    -0.36000
C2627       C  0.70720729  0.36088573  0.98125961     0.16300
C2628       C  0.66383583  0.35592195  0.98119296     0.22100
C2629       C  0.62568489  0.36383012  0.98124124    -0.34200
C2630       C  0.63466311  0.37683949  0.98140872     0.16200
O2631       O  0.67852280  0.39423004  0.98142131    -0.26200
C2632       C  0.63479379  0.39728714  0.98064531     0.06000
C2633       C  0.60602097  0.38686090  0.98060933    -0.31100
O2634       O  0.66361062  0.34345470  0.98045401    -0.22900
C2635       C  0.70745598  0.34046923  0.97984625    -0.02900
C2636       C  0.73599623  0.35092718  0.98030238    -0.17300
H2637       H  0.75041504  0.37759082  0.98160096     0.20700
H2638       H  0.59144899  0.36011619  0.98080039     0.19100
H2639       H  0.56929887  0.38670918  0.97978655     0.19000
H2640       H  0.77273987  0.35114048  0.97985150     0.14900
C2641       C  0.53170092  0.31000145  0.58300706     0.30300
C2642       C  0.51038399  0.31014461  0.60562132    -0.36000
C2643       C  0.53933466  0.30987294  0.62560915     0.16300
C2644       C  0.58597569  0.30938287  0.62334802     0.22100
C2645       C  0.60730422  0.30948164  0.60074783    -0.34200
C2646       C  0.57837900  0.30986191  0.58077088     0.16200
O2647       O  0.51112483  0.30949878  0.56203854    -0.26200
C2648       C  0.54494080  0.30919248  0.54615268     0.06000
C2649       C  0.58767990  0.30949659  0.55669443    -0.31100
O2650       O  0.60648114  0.30846825  0.64427403    -0.22900
C2651       C  0.57271177  0.30850755  0.66019289    -0.02900
C2652       C  0.53003352  0.30944979  0.64969376    -0.17300
H2653       H  0.97379802  0.31017578  0.60747022     0.20700
H2654       H  0.64385009  0.30901717  0.59888913     0.19100
H2655       H  0.62050856  0.30897261  0.54797810     0.19000
H2656       H  0.49717910  0.30941985  0.65843851     0.14900
C2657       C  0.49852412  0.25752631  0.73496858     0.30300
C2658       C  0.95693498  0.25145382  0.73917589    -0.36000
C2659       C  0.95583560  0.23849255  0.73428123     0.16300
C2660       C  0.99319601  0.23199460  0.72582185     0.22100
C2661       C  0.53476824  0.23809041  0.72147459    -0.34200
C2662       C  0.53590569  0.25106345  0.72643862     0.16200
O2663       O  0.50685464  0.26958533  0.73828278    -0.26200
C2664       C  0.55013056  0.27092778  0.73188424     0.06000
C2665       C  0.57014025  0.25971032  0.72432936    -0.31100
O2666       O  0.98507078  0.21985906  0.72323276    -0.22900
C2667       C  0.94197397  0.21855034  0.73005070    -0.02900
C2668       C  0.92187945  0.22984402  0.73703480    -0.17300
H2669       H  0.92758980  0.25648153  0.74594917     0.20700
H2670       H  0.56423713  0.23304122  0.71491744     0.19100
H2671       H  0.60440476  0.25820712  0.71788749     0.19000
H2672       H  0.88782827  0.23138061  0.74376350     0.14900
C2673       C  0.71620260  0.30435218  0.87000002     0.30300
C2674       C  0.72755069  0.30469381  0.84546686    -0.36000
C2675       C  0.69091218  0.30463811  0.82929650     0.16300
C2676       C  0.64609668  0.30446592  0.83662683     0.22100
C2677       C  0.63476662  0.30398270  0.86114488    -0.34200
C2678       C  0.67140641  0.30383472  0.87729969     0.16200
O2679       O  0.74490695  0.30444171  0.88831558    -0.26200
C2680       C  0.71800423  0.30378097  0.90753715     0.06000
C2681       C  0.67207200  0.30333765  0.90172306    -0.31100
O2682       O  0.61733619  0.30462255  0.81834589    -0.22900
C2683       C  0.64422618  0.30471828  0.79908705    -0.02900
C2684       C  0.69022039  0.30471332  0.80484769    -0.17300
H2685       H  0.76246771  0.30495361  0.83939472     0.20700
H2686       H  0.59985146  0.30369769  0.86721539     0.19100
H2687       H  0.64328011  0.30294784  0.91383607     0.19000
H2688       H  0.71899496  0.30482136  0.79270142     0.14900
C2689       C  0.77352930  0.43101204  0.62459690     0.30300
C2690       C  0.75308874  0.43066724  0.60177988    -0.36000
C2691       C  0.78279615  0.43033620  0.58209597     0.16300
C2692       C  0.82938225  0.43046389  0.58478711     0.22100
C2693       C  0.84982814  0.43057090  0.60762563    -0.34200
C2694       C  0.82010253  0.43079351  0.62732410     0.16200
O2695       O  0.75216690  0.43190539  0.64531268    -0.26200
C2696       C  0.78532987  0.43212751  0.66156988     0.06000
C2697       C  0.82844876  0.43137316  0.65149590    -0.31100
O2698       O  0.85071246  0.43089736  0.56399729    -0.22900
C2699       C  0.81747521  0.43089291  0.54776781    -0.02900
C2700       C  0.77438673  0.43046088  0.55792378    -0.17300
H2701       H  0.71659387  0.43089939  0.59954378     0.20700
H2702       H  0.88633142  0.43073434  0.60984727     0.19100
H2703       H  0.86096053  0.43160841  0.66056695     0.19000
H2704       H  0.74184887  0.43070781  0.54888090     0.14900
C2705       C  0.89527909  0.50354959  0.73213727     0.30300
C2706       C  0.89793110  0.49092425  0.73946600    -0.36000
C2707       C  0.85823621  0.48375975  0.73664839     0.16300
C2708       C  0.81848632  0.48858012  0.72722099     0.22100
C2709       C  0.81577928  0.50123579  0.71994498    -0.34200
C2710       C  0.85553622  0.50841468  0.72277540     0.16200
O2711       O  0.92809950  0.51203103  0.73350473    -0.26200
C2712       C  0.90907513  0.52246358  0.72484740     0.06000
C2713       C  0.86404384  0.52074262  0.71789578    -0.31100
O2714       O  0.78602421  0.47998627  0.72550479    -0.22900
C2715       C  0.80541551  0.46956485  0.73404594    -0.02900
C2716       C  0.85017478  0.47141028  0.74128077    -0.17300
H2717       H  0.92880782  0.48694573  0.74680493     0.20700
H2718       H  0.78497871  0.50519474  0.71247886     0.19100
H2719       H  0.84063192  0.52767748  0.71078340     0.19000
H2720       H  0.87388491  0.46450950  0.74823732     0.14900
C2721       C  0.63333611  0.43346875  0.86972856     0.30300
C2722       C  0.62307100  0.43422888  0.84510488    -0.36000
C2723       C  0.66041629  0.43451967  0.82938591     0.16300
C2724       C  0.70487393  0.43387817  0.83719166     0.22100
C2725       C  0.71515082  0.43321247  0.86181181    -0.34200
C2726       C  0.67783718  0.43313354  0.87754113     0.16200
O2727       O  0.60383291  0.43333631  0.88770213    -0.26200
C2728       C  0.62997294  0.43308455  0.90723126     0.06000
C2729       C  0.67617010  0.43295116  0.90195443    -0.31100
O2730       O  0.73440546  0.43410249  0.81925400    -0.22900
C2731       C  0.70841229  0.43507703  0.79975626    -0.02900
C2732       C  0.66220724  0.43540860  0.80501247    -0.17300
H2733       H  0.58843800  0.43468909  0.83865218     0.20700
H2734       H  0.74979829  0.43289241  0.86827758     0.19100
H2735       H  0.70446249  0.43279718  0.91439994     0.19000
H2736       H  0.63398615  0.43603227  0.79257863     0.14900
C2737       C  0.66803060  0.38306449  0.72487398     0.30300
C2738       C  0.63154344  0.37462622  0.72590711    -0.36000
C2739       C  0.64294820  0.36179707  0.72527464     0.16300
C2740       C  0.68707627  0.35747914  0.72345921     0.22100
C2741       C  0.72359461  0.36592297  0.72237248    -0.34200
C2742       C  0.71221940  0.37876121  0.72330680     0.16200
O2743       O  0.66543993  0.39547967  0.72622977    -0.26200
C2744       C  0.70859205  0.39911274  0.72572335     0.06000
C2745       C  0.73907854  0.38913413  0.72388573    -0.31100
O2746       O  0.68974770  0.34503892  0.72377891    -0.22900
C2747       C  0.64673468  0.34142271  0.72599436    -0.02900
C2748       C  0.61628070  0.35143573  0.72696847    -0.17300
H2749       H  0.59678478  0.37782423  0.72761577     0.20700
H2750       H  0.75844640  0.36271872  0.72140908     0.19100
H2751       H  0.77581158  0.38948963  0.72347719     0.19000
H2752       H  0.57972464  0.35110733  0.72894547     0.14900
C2753       C  0.54533255  0.80908778  0.12941004     0.30300
C2754       C  0.51223202  0.80924328  0.11128176    -0.36000
C2755       C  0.52849173  0.80945902  0.08752310     0.16300
C2756       C  0.57413747  0.80971970  0.08183285     0.22100
C2757       C  0.60726909  0.80954776  0.09997170    -0.34200
C2758       C  0.59099971  0.80911445  0.12373813     0.16200
O2759       O  0.53784283  0.80844313  0.15285659    -0.26200
C2760       C  0.57931490  0.80789808  0.16225281     0.06000
C2761       C  0.61359439  0.80827380  0.14499000    -0.31100
O2762       O  0.58153933  0.80955712  0.05833439    -0.22900
C2763       C  0.54001880  0.80905000  0.04895163    -0.02900
C2764       C  0.50584024  0.80898062  0.06626717    -0.17300
H2765       H  0.47631689  0.80893287  0.11538601     0.20700
H2766       H  0.64319377  0.80946068  0.09584879     0.19100
H2767       H  0.64995457  0.80788897  0.14775108     0.19000
H2768       H  0.96949693  0.80843252  0.06353898     0.14900
C2769       C  0.49670492  0.75815741  0.23660700     0.30300
C2770       C  0.95408548  0.75238529  0.23963395    -0.36000
C2771       C  0.95198123  0.73944895  0.23430124     0.16300
C2772       C  0.98937373  0.73273369  0.22654132     0.22100
C2773       C  0.53189620  0.73850455  0.22347242    -0.34200
C2774       C  0.53401974  0.75141363  0.22884139     0.16200
O2775       O  0.50613879  0.77015957  0.24019976    -0.26200
C2776       C  0.55006060  0.77114096  0.23474769     0.06000
C2777       C  0.56930512  0.75975835  0.22757495    -0.31100
O2778       O  0.98031498  0.72070756  0.22319523    -0.22900
C2779       C  0.93655134  0.71962410  0.22881712    -0.02900
C2780       C  0.91693109  0.73100424  0.23581397    -0.17300
H2781       H  0.92469686  0.75761545  0.24576133     0.20700
H2782       H  0.56132525  0.73326378  0.21743440     0.19100
H2783       H  0.60378817  0.75797116  0.22175683     0.19000
H2784       H  0.88246966  0.73271775  0.24174779     0.14900
C2785       C  0.78240826  0.93060974  0.13051055     0.30300
C2786       C  0.76173615  0.93028516  0.10776113    -0.36000
C2787       C  0.79111639  0.93097075  0.08798470     0.16300
C2788       C  0.83757869  0.93202815  0.09053297     0.22100
C2789       C  0.85832698  0.93213018  0.11329168    -0.34200
C2790       C  0.82895946  0.93131385  0.13307822     0.16200
O2791       O  0.76118479  0.93074896  0.15132376    -0.26200
C2792       C  0.79445483  0.93138238  0.16746624     0.06000
C2793       C  0.83751048  0.93165331  0.15724014    -0.31100
O2794       O  0.85843243  0.93312106  0.06970114    -0.22900
C2795       C  0.82504190  0.93261894  0.05358581    -0.02900
C2796       C  0.78232641  0.93121973  0.06386101    -0.17300
H2797       H  0.72524788  0.92977547  0.10565936     0.20700
H2798       H  0.89472467  0.93300356  0.11540613     0.19100
H2799       H  0.86997554  0.93253166  0.16621792     0.19000
H2800       H  0.74971003  0.93076470  0.05492646     0.14900
C2801       C  0.82918955  0.98763522  0.23415441     0.30300
C2802       C  0.82590909  0.00038629  0.22759839    -0.36000
C2803       C  0.86569249  0.00756835  0.23018481     0.16300
C2804       C  0.90598661  0.00261436  0.23867109     0.22100
C2805       C  0.90919858  0.98989293  0.24532999    -0.34200
C2806       C  0.86946869  0.98271783  0.24273123     0.16200
O2807       O  0.79676418  0.97904078  0.23244292    -0.26200
C2808       C  0.81668298  0.96851213  0.24010931     0.06000
C2809       C  0.86178798  0.97028330  0.24678972    -0.31100
O2810       O  0.93886223  0.01108569  0.23974779    -0.22900
C2811       C  0.91929383  0.02159972  0.23181370    -0.02900
C2812       C  0.87385617  0.01994950  0.22561665    -0.17300
H2813       H  0.79468673  0.00440548  0.22077001     0.20700
H2814       H  0.94053880  0.98584570  0.25194308     0.19100
H2815       H  0.88587527  0.96330270  0.25305677     0.19000
H2816       H  0.85008636  0.02693637  0.21904406     0.14900
C2817       C  0.65436650  0.86013479  0.22710912     0.30300
C2818       C  0.63941027  0.87269494  0.22699233    -0.36000
C2819       C  0.67340375  0.88189131  0.22831401     0.16300
C2820       C  0.71892236  0.87888463  0.22975385     0.22100
C2821       C  0.73393360  0.86631664  0.22949946    -0.34200
C2822       C  0.69991880  0.85711066  0.22807163     0.16200
O2823       O  0.62823364  0.85009404  0.22724393    -0.26200
C2824       C  0.65727160  0.84049856  0.22808729     0.06000
C2825       C  0.70247901  0.84425038  0.22847823    -0.31100
O2826       O  0.74474530  0.88893925  0.23190287    -0.22900
C2827       C  0.71549358  0.89850246  0.23166502    -0.02900
C2828       C  0.67055055  0.89472130  0.22935238    -0.17300
H2829       H  0.60372112  0.87510910  0.22641417     0.20700
H2830       H  0.76954767  0.86389575  0.23079739     0.19100
H2831       H  0.73250898  0.83840546  0.22979847     0.19000
H2832       H  0.64034224  0.90053523  0.22903076     0.14900
C2833       C  0.79046042  0.80933797  0.58411987     0.30300
C2834       C  0.76849334  0.80917547  0.60654910    -0.36000
C2835       C  0.79679360  0.80927289  0.62679674     0.16300
C2836       C  0.84352927  0.80936124  0.62500942     0.22100
C2837       C  0.86553019  0.80974003  0.60254357    -0.34200
C2838       C  0.83716187  0.80978261  0.58225770     0.16200
O2839       O  0.77046707  0.80882757  0.56298974    -0.26200
C2840       C  0.80458021  0.80910324  0.54728197     0.06000
C2841       C  0.84703861  0.80976843  0.55817623    -0.31100
O2842       O  0.86337721  0.80872742  0.64620899    -0.22900
C2843       C  0.82898122  0.80838867  0.66177675    -0.02900
C2844       C  0.78666295  0.80879579  0.65077078    -0.17300
H2845       H  0.73188157  0.80879910  0.60807737     0.20700
H2846       H  0.90216450  0.80978962  0.60100624     0.19100
H2847       H  0.88010591  0.80984261  0.54966352     0.19000
H2848       H  0.75350119  0.80836235  0.65914181     0.14900
C2849       C  0.91782903  0.73805583  0.47755397     0.30300
C2850       C  0.92111672  0.75060978  0.46967430    -0.36000
C2851       C  0.88185233  0.75801227  0.47239036     0.16300
C2852       C  0.84198844  0.75344316  0.48216473     0.22100
C2853       C  0.83871058  0.74090453  0.49004162    -0.34200
C2854       C  0.87795840  0.73352002  0.48736987     0.16200
O2855       O  0.94988787  0.72932466  0.47620533    -0.26200
C2856       C  0.93015489  0.71908651  0.48536284     0.06000
C2857       C  0.88552609  0.72119942  0.49262845    -0.31100
O2858       O  0.80988902  0.76213988  0.48358753    -0.22900
C2859       C  0.82951180  0.77242137  0.47457813    -0.02900
C2860       C  0.87419058  0.77036979  0.46729298    -0.17300
H2861       H  0.95207430  0.75435153  0.46195985     0.20700
H2862       H  0.80776930  0.73716601  0.49778267     0.19100
H2863       H  0.86159472  0.71448465  0.50004902     0.19000
H2864       H  0.89803936  0.77713429  0.45996750     0.14900
C2865       C  0.69548681  0.80532446  0.33006162     0.30300
C2866       C  0.73553808  0.80516155  0.34382093    -0.36000
C2867       C  0.72995242  0.80604267  0.36886411     0.16300
C2868       C  0.68772467  0.80683028  0.37953624     0.22100
C2869       C  0.64772594  0.80719699  0.36575920    -0.34200
C2870       C  0.65334772  0.80648724  0.34070373     0.16200
O2871       O  0.69290581  0.80443332  0.30644509    -0.26200
C2872       C  0.64862840  0.80516187  0.30178247     0.06000
C2873       C  0.62224808  0.80653658  0.32241508    -0.31100
O2874       O  0.69014429  0.80708366  0.40320804    -0.22900
C2875       C  0.73446542  0.80664274  0.40785122    -0.02900
C2876       C  0.76105393  0.80606024  0.38715928    -0.17300
H2877       H  0.76870455  0.80434045  0.33556208     0.20700
H2878       H  0.61453598  0.80790712  0.37402921     0.19100
H2879       H  0.58568907  0.80729466  0.32374014     0.19000
H2880       H  0.79764563  0.80543026  0.38583802     0.14900
C2881       C  0.54722095  0.93160836  0.58725519     0.30300
C2882       C  0.51448269  0.93111093  0.60554064    -0.36000
C2883       C  0.53118670  0.93127778  0.62919421     0.16300
C2884       C  0.57692189  0.93170947  0.63464669     0.22100
C2885       C  0.60965863  0.93224011  0.61635556    -0.34200
C2886       C  0.59292391  0.93226312  0.59269902     0.16200
O2887       O  0.53930001  0.93191339  0.56383663    -0.26200
C2888       C  0.58052122  0.93290949  0.55425827     0.06000
C2889       C  0.61505012  0.93317933  0.57135168    -0.31100
O2890       O  0.58471792  0.93204865  0.65808445    -0.22900
C2891       C  0.54333462  0.93196366  0.66765002    -0.02900
C2892       C  0.00886727  0.93148447  0.65053973    -0.17300
H2893       H  0.97849159  0.93085019  0.60162526     0.20700
H2894       H  0.64559392  0.93283763  0.62027834     0.19100
H2895       H  0.65127664  0.93399954  0.56841760     0.19000
H2896       H  0.97251606  0.93147091  0.65346318     0.14900
C2897       C  0.03777822  0.98852137  0.48712174     0.30300
C2898       C  0.03960660  0.00120149  0.49438808    -0.36000
C2899       C  0.99985076  0.00827951  0.49082577     0.16300
C2900       C  0.96087912  0.00331537  0.48074478     0.22100
C2901       C  0.95908493  0.99064690  0.47343777    -0.34200
C2902       C  0.99879052  0.98356200  0.47705062     0.16200
O2903       O  0.57045528  0.98003363  0.48942732    -0.26200
C2904       C  0.55200468  0.96950635  0.48069629     0.06000
C2905       C  0.00759510  0.97119402  0.47271045    -0.31100
O2906       O  0.92792495  0.01173989  0.47878814    -0.22900
C2907       C  0.94611976  0.02223005  0.48780422    -0.02900
C2908       C  0.99071195  0.02059116  0.49556406    -0.17300
H2909       H  0.06978755  0.00525476  0.50239252     0.20700
H2910       H  0.92881367  0.98657494  0.46556578     0.19100
H2911       H  0.98463219  0.96419524  0.46537184     0.19000
H2912       H  0.01347594  0.02757107  0.50314050     0.14900
C2913       C  0.64796720  0.93457709  0.37687521     0.30300
C2914       C  0.63639766  0.93419305  0.35236626    -0.36000
C2915       C  0.67291291  0.93441923  0.33608898     0.16300
C2916       C  0.71776266  0.93475977  0.34333380     0.22100
C2917       C  0.72928357  0.93525612  0.36778623    -0.34200
C2918       C  0.69281548  0.93525375  0.38401674     0.16200
O2919       O  0.61948326  0.93452922  0.39530890    -0.26200
C2920       C  0.64664976  0.93536409  0.41439667     0.06000
C2921       C  0.69246390  0.93587355  0.40839673    -0.31100
O2922       O  0.74643245  0.93478349  0.32503875    -0.22900
C2923       C  0.71950491  0.93464382  0.30583760    -0.02900
C2924       C  0.67351410  0.93444141  0.31162249    -0.17300
H2925       H  0.60143965  0.93384145  0.34639480     0.20700
H2926       H  0.76423092  0.93571055  0.37375227     0.19100
H2927       H  0.72139992  0.93648625  0.42036700     0.19000
H2928       H  0.64474012  0.93425403  0.29949476     0.14900
C2929       C  0.70048580  0.88410146  0.48690984     0.30300
C2930       C  0.73821146  0.87612671  0.48450679    -0.36000
C2931       C  0.72894472  0.86313017  0.48426926     0.16300
C2932       C  0.68567246  0.85824701  0.48652066     0.22100
C2933       C  0.64795755  0.86621763  0.48897197    -0.34200
C2934       C  0.65717230  0.87921560  0.48893333     0.16200
O2935       O  0.70095855  0.89657647  0.48646134    -0.26200
C2936       C  0.65730192  0.89968245  0.48804536     0.06000
C2937       C  0.62863968  0.88926706  0.48967814    -0.31100
O2938       O  0.68490459  0.84578608  0.48545763    -0.22900
C2939       C  0.72827249  0.84268061  0.48233491    -0.02900
C2940       C  0.75709618  0.85308810  0.48146367    -0.17300
H2941       H  0.77230386  0.87979531  0.48247184     0.20700
H2942       H  0.61373540  0.86255553  0.49033747     0.19100
H2943       H  0.59192937  0.88913800  0.49067499     0.19000
H2944       H  0.79356578  0.85321783  0.47902482     0.14900
loop_ 
_geom_bond_atom_site_label_1 
_geom_bond_atom_site_label_2 
_geom_bond_distance 
_geom_bond_site_symmetry_2 
_ccdc_geom_bond_type 
O1           Ni9   1.934       .  S
O1           C11   1.285       .  A
O2           Ni9   1.936       .  S
O2           C12   1.285       .  A
O3           Ni9   1.901       .  S
O3           C13   1.277       .  A
O4           Ni9   1.898       .  S
O4           C14   1.276       .  A
O5          Ni10   1.942       .  S
O5           C14   1.286       .  A
O6          Ni10   1.935       .  S
O6           C13   1.285       .  A
O7          Ni10   1.897       .  S
O7           C12   1.277       .  A
O8          Ni10   1.896       .  S
O8           C11   1.276       .  A
Ni9         Ni10   2.390       .  S
C11        C1416   1.466       .  S
C12        C1448   1.469       .  S
C13        C1464   1.470       .  S
C14        C1432   1.474       .  S
O15         Ni23   1.939       .  S
O15          C25   1.286       .  A
O16         Ni23   1.939       .  S
O16          C26   1.286       .  A
O17         Ni23   1.904       .  S
O17          C27   1.278       .  A
O18         Ni23   1.900       .  S
O18          C28   1.277       .  A
O19         Ni24   1.940       .  S
O19          C28   1.286       .  A
O20         Ni24   1.932       .  S
O20          C27   1.284       .  A
O21         Ni24   1.900       .  S
O21          C26   1.276       .  A
O22         Ni24   1.896       .  S
O22          C25   1.275       .  A
Ni23        Ni24   2.390       .  S
C25        C1368   1.467       .  S
C26        C1403   1.470       .  S
C27        C1467   1.470       .  S
C28        C1387   1.474       .  S
O29         Ni37   1.932       .  S
O29          C39   1.284       .  A
O30         Ni37   1.933       .  S
O30          C40   1.284       .  A
O31         Ni37   1.898       .  S
O31          C41   1.276       .  A
O32         Ni37   1.895       .  S
O32          C42   1.276       .  A
O33         Ni38   1.938       .  S
O33          C42   1.285       .  A
O34         Ni38   1.928       .  S
O34          C41   1.284       .  A
O35         Ni38   1.899       .  S
O35          C40   1.277       .  A
O36         Ni38   1.896       .  S
O36          C39   1.276       .  A
Ni37        Ni38   2.392       .  S
C39        C1320   1.462       .  S
C40        C1451   1.467       .  S
C41        C1355   1.462       .  S
C42        C1336   1.471       .  S
O43         Ni51   1.936       .  S
O43          C53   1.285       .  A
O44         Ni51   1.939       .  S
O44          C54   1.286       .  A
O45         Ni51   1.896       .  S
O45          C55   1.275       .  A
O46         Ni51   1.897       .  S
O46          C56   1.275       .  A
O47         Ni52   1.940       .  S
O47          C56   1.287       .  A
O48         Ni52   1.931       .  S
O48          C55   1.284       .  A
O49         Ni52   1.901       .  S
O49          C54   1.276       .  A
O50         Ni52   1.900       .  S
O50          C53   1.277       .  A
Ni51        Ni52   2.391       .  S
C53        C1288   1.469       .  S
C54        C1400   1.471       .  S
C55        C1352   1.462       .  S
C56        C1304   1.470       .  S
O57         Ni65   1.934       .  S
O57          C67   1.285       .  A
O58         Ni65   1.936       .  S
O58          C68   1.285       .  A
O59         Ni65   1.892       .  S
O59          C69   1.275       .  A
O60         Ni65   1.892       .  S
O60          C70   1.276       .  A
O61         Ni66   1.940       .  S
O61          C70   1.286       .  A
O62         Ni66   1.931       .  S
O62          C69   1.284       .  A
O63         Ni66   1.899       .  S
O63          C68   1.277       .  A
O64         Ni66   1.896       .  S
O64          C67   1.275       .  A
Ni65        Ni66   2.391       .  S
C67        C1224   1.464       .  S
C68        C1259   1.470       .  S
C69        C1272   1.462       .  S
C70        C1243   1.471       .  S
O71         Ni79   1.934       .  S
O71          C81   1.285       .  A
O72         Ni79   1.937       .  S
O72          C82   1.285       .  A
O73         Ni79   1.892       .  S
O73          C83   1.276       .  A
O74         Ni79   1.892       .  S
O74          C84   1.275       .  A
O75         Ni80   1.939       .  S
O75          C84   1.286       .  A
O76         Ni80   1.931       .  S
O76          C83   1.284       .  A
O77         Ni80   1.899       .  S
O77          C82   1.277       .  A
O78         Ni80   1.894       .  S
O78          C81   1.275       .  A
Ni79        Ni80   2.392       .  S
C81        C1179   1.463       .  S
C82        C1211   1.470       .  S
C83        C1275   1.463       .  S
C84        C1192   1.467       .  S
O85         Ni93   1.937   1_554  S
O85          C95   1.285       .  A
O86         Ni93   1.939       .  S
O86          C96   1.285       .  A
O87         Ni93   1.900       .  S
O87          C97   1.277       .  A
O88         Ni93   1.899       .  S
O88          C98   1.276       .  A
O89         Ni94   1.940       .  S
O89          C98   1.286       .  A
O90         Ni94   1.931       .  S
O90          C97   1.284       .  A
O91         Ni94   1.896       .  S
O91          C96   1.276       .  A
O92         Ni94   1.894   1_554  S
O92          C95   1.275       .  A
Ni93        Ni94   2.391       .  S
C95        C1128   1.464       .  S
C96        C1256   1.469       .  S
C97        C1160   1.466       .  S
C98        C1144   1.473       .  S
O99        Ni107   1.935   1_554  S
O99         C109   1.285       .  A
O100       Ni107   1.936       .  S
O100        C110   1.285       .  A
O101       Ni107   1.898       .  S
O101        C111   1.277       .  A
O102       Ni107   1.897       .  S
O102        C112   1.276       .  A
O103       Ni108   1.939       .  S
O103        C112   1.286       .  A
O104       Ni108   1.931       .  S
O104        C111   1.284       .  A
O105       Ni108   1.900       .  S
O105        C110   1.277       .  A
O106       Ni108   1.898   1_554  S
O106        C109   1.276       .  A
Ni107      Ni108   2.390       .  S
C109       C1096   1.467       .  S
C110       C1208   1.470       .  S
C111       C1163   1.466       .  S
C112       C1115   1.472       .  S
O113       Ni121   1.933       .  S
O113        C123   1.285       .  A
O114       Ni121   1.933       .  S
O114        C124   1.284       .  A
O115       Ni121   1.895       .  S
O115        C125   1.276       .  A
O116       Ni121   1.896       .  S
O116        C126   1.275       .  A
O117       Ni122   1.931       .  S
O117        C126   1.284       .  A
O118       Ni122   1.940       .  S
O118        C125   1.286       .  A
O119       Ni122   1.901       .  S
O119        C124   1.277       .  A
O120       Ni122   1.899       .  S
O120        C123   1.276       .  A
Ni121      Ni122   2.391       .  S
C123       C1032   1.465       .  S
C124       C1064   1.468       .  S
C125       C1048   1.471       .  S
C126       C1080   1.462       .  S
O127       Ni135   1.934       .  S
O127        C137   1.285       .  A
O128       Ni135   1.935       .  S
O128        C138   1.285       .  A
O129       Ni135   1.895       .  S
O129        C139   1.276       .  A
O130       Ni135   1.895       .  S
O130        C140   1.275       .  A
O131       Ni136   1.932       .  S
O131        C140   1.284       .  A
O132       Ni136   1.943       .  S
O132        C139   1.287       .  A
O133       Ni136   1.901       .  S
O133        C138   1.277       .  A
O134       Ni136   1.897       .  S
O134        C137   1.276       .  A
Ni135      Ni136   2.391       .  S
C137       C1003   1.464       .  S
C138       C1016   1.470       .  S
C139       C1435   1.473       .  S
C140       C1083   1.462       .  S
O141       Ni149   1.935       .  S
O141        C151   1.285       .  A
O142       Ni149   1.926       .  S
O142        C152   1.283       .  A
O143       Ni149   1.901       .  S
O143        C153   1.276       .  A
O144       Ni149   1.902       .  S
O144        C154   1.278       .  A
O145       Ni150   1.934       .  S
O145        C154   1.284       .  A
O146       Ni150   1.933       .  S
O146        C153   1.285       .  A
O147       Ni150   1.899       .  S
O147        C152   1.276       .  A
O148       Ni150   1.898       .  S
O148        C151   1.276       .  A
Ni149      Ni150   2.391       .  S
C151        C968   1.470       .  S
C152        C987   1.461       .  S
C153        C952   1.466       .  S
C154       C1019   1.470       .  S
O155       Ni163   1.937       .  S
O155        C165   1.285       .  A
O156       Ni163   1.938       .  S
O156        C166   1.285       .  A
O157       Ni163   1.897       .  S
O157        C167   1.275       .  A
O158       Ni163   1.897       .  S
O158        C168   1.276       .  A
O159       Ni164   1.927       .  S
O159        C168   1.284       .  A
O160       Ni164   1.936       .  S
O160        C167   1.286       .  A
O161       Ni164   1.895       .  S
O161        C166   1.276       .  A
O162       Ni164   1.895       .  S
O162        C165   1.276       .  A
Ni163      Ni164   2.392       .  S
C165        C939   1.468       .  S
C166       C1067   1.468       .  S
C167       C1195   1.467       .  S
C168        C984   1.461       .  S
O169       Ni177   1.935       .  S
O169        C179   1.285       .  A
O170       Ni177   1.937   1_554  S
O170        C180   1.285       .  A
O171       Ni177   1.897       .  S
O171        C181   1.276       .  A
O172       Ni177   1.899       .  S
O172        C182   1.276       .  A
O173       Ni178   1.932       .  S
O173        C182   1.285       .  A
O174       Ni178   1.942       .  S
O174        C181   1.286       .  A
O175       Ni178   1.902   1_554  S
O175        C180   1.276       .  A
O176       Ni178   1.900       .  S
O176        C179   1.276       .  A
Ni177      Ni178   2.391       .  S
C179        C888   1.467       .  S
C180        C904   1.469       .  S
C181       C1147   1.474       .  S
C182        C923   1.465       .  S
O183       Ni191   1.934       .  S
O183        C193   1.285       .  A
O184       Ni191   1.936   1_554  S
O184        C194   1.285       .  A
O185       Ni191   1.898       .  S
O185        C195   1.276       .  A
O186       Ni191   1.899       .  S
O186        C196   1.276       .  A
O187       Ni192   1.931       .  S
O187        C196   1.284       .  A
O188       Ni192   1.940       .  S
O188        C195   1.286       .  A
O189       Ni192   1.900   1_554  S
O189        C194   1.276       .  A
O190       Ni192   1.898       .  S
O190        C193   1.276       .  A
Ni191      Ni192   2.391       .  S
C193        C840   1.467       .  S
C194        C872   1.467       .  S
C195        C859   1.470       .  S
C196        C920   1.465       .  S
O197       Ni205   1.936       .  S
O197        C207   1.285       .  A
O198       Ni205   1.940       .  S
O198        C208   1.286       .  A
O199       Ni205   1.895       .  S
O199        C209   1.275       .  A
O200       Ni205   1.897       .  S
O200        C210   1.276       .  A
O201       Ni206   1.932       .  S
O201        C210   1.284       .  A
O202       Ni206   1.941       .  S
O202        C209   1.287       .  A
O203       Ni206   1.898       .  S
O203        C208   1.276       .  A
O204       Ni206   1.894       .  S
O204        C207   1.276       .  A
Ni205      Ni206   2.391       .  S
C207        C792   1.466       .  S
C208        C907   1.469       .  S
C209        C808   1.469       .  S
C210        C824   1.466       .  S
O211       Ni219   1.930       .  S
O211        C221   1.284       .  A
O212       Ni219   1.934       .  S
O212        C222   1.285       .  A
O213       Ni219   1.896       .  S
O213        C223   1.275       .  A
O214       Ni219   1.898       .  S
O214        C224   1.277       .  A
O215       Ni220   1.932       .  S
O215        C224   1.284       .  A
O216       Ni220   1.941       .  S
O216        C223   1.286       .  A
O217       Ni220   1.901       .  S
O217        C222   1.276       .  A
O218       Ni220   1.899       .  S
O218        C221   1.277       .  A
Ni219      Ni220   2.391       .  S
C221        C776   1.465       .  S
C222        C875   1.467       .  S
C223       C1307   1.470       .  S
C224        C827   1.466       .  S
O225      Ni1705   1.937       .  S
O225       C1707   1.285       .  A
O226       Ni233   1.937       .  S
O226        C236   1.285       .  A
O227       Ni233   1.896       .  S
O227        C237   1.276       .  A
O228      Ni1705   1.893       .  S
O228        C238   1.276       .  A
O229       Ni234   1.940       .  S
O229       C1710   1.286       .  A
O230       Ni234   1.930       .  S
O230        C237   1.284       .  A
O231       Ni234   1.896       .  S
O231        C236   1.276       .  A
O232       Ni234   1.892       .  S
O232        C235   1.275       .  A
Ni233      O1697   1.937       .  S
Ni233      O1700   1.893       .  S
Ni233      Ni234   2.391       .  S
C235       O1697   1.285       .  A
C235       C2891   1.466       .  S
C236        C747   1.467       .  S
C237        C760   1.463       .  S
C238       O1701   1.286       .  A
C238        C971   1.471       .  S
O239       Ni247   1.934       .  S
O239        C249   1.285       .  A
O240       Ni247   1.937       .  S
O240        C250   1.285       .  A
O241       Ni247   1.894       .  S
O241        C251   1.276       .  A
O242       Ni247   1.893       .  S
O242        C252   1.276       .  A
O243       Ni248   1.940       .  S
O243        C252   1.286       .  A
O244       Ni248   1.931       .  S
O244        C251   1.284       .  A
O245       Ni248   1.900       .  S
O245        C250   1.276       .  A
O246       Ni248   1.900       .  S
O246        C249   1.276       .  A
Ni247      Ni248   2.391       .  S
C249       C1371   1.466       .  S
C250        C728   1.468       .  S
C251        C763   1.463       .  S
C252        C712   1.470       .  S
O253       Ni261   1.933   1_554  S
O253        C263   1.285       .  A
O254       Ni261   1.936       .  S
O254        C264   1.285       .  A
O255       Ni261   1.897       .  S
O255        C265   1.276       .  A
O256       Ni261   1.897       .  S
O256        C266   1.275       .  A
O257       Ni262   1.940       .  S
O257        C266   1.287       .  A
O258       Ni262   1.933       .  S
O258        C265   1.285       .  A
O259       Ni262   1.896       .  S
O259        C264   1.276       .  A
O260       Ni262   1.896   1_554  S
O260        C263   1.275       .  A
Ni261      Ni262   2.391       .  S
C263       C1323   1.464       .  S
C264        C744   1.468       .  S
C265        C699   1.464       .  S
C266        C683   1.470       .  S
O267       Ni275   1.935   1_554  S
O267        C277   1.285       .  A
O268       Ni275   1.936       .  S
O268       C1750   1.285   1_455  A
O269      Ni1747   1.901       .  S
O269        C279   1.277       .  A
O270       Ni275   1.900       .  S
O270        C280   1.276       .  A
O271      Ni1748   1.937   1_455  S
O271        C280   1.286       .  A
O272       Ni276   1.928       .  S
O272        C279   1.284       .  A
O273       Ni276   1.902       .  S
O273        C278   1.276       .  A
O274       Ni276   1.900   1_554  S
O274       C1749   1.277       .  A
Ni275      O1741   1.901       .  S
Ni275     Ni1748   2.391   1_455  S
Ni276      O1743   1.937       .  S
Ni276     Ni1747   2.391       .  S
C277       O1746   1.277   1_455  A
C277       C1291   1.469       .  S
C278       O1740   1.285       .  A
C278        C731   1.469       .  S
C279        C696   1.464       .  S
C280        C856   1.470       .  S
O281       Ni289   1.939       .  S
O281        C291   1.286       .  A
O282       Ni289   1.941       .  S
O282       C1764   1.286       .  A
O283       Ni289   1.895       .  S
O283        C293   1.276       .  A
O284      Ni1761   1.896       .  S
O284        C294   1.276       .  A
O285       Ni290   1.930       .  S
O285        C294   1.284   1_455  A
O286       Ni290   1.939   1_655  S
O286       C1765   1.286       .  A
O287       Ni290   1.899       .  S
O287        C292   1.276   1_455  A
O288       Ni290   1.895   1_655  S
O288       C1763   1.275       .  A
Ni289      O1756   1.896       .  S
Ni289     Ni1762   2.391       .  S
Ni290     Ni1761   2.391   1_455  S
C291       O1760   1.275       .  A
C291        C891   1.467       .  S
C292       O1754   1.286       .  A
C292        C648   1.472   1_655  S
C293       O1758   1.286       .  A
C293       C1240   1.471       .  S
C294        C667   1.464   1_655  S
O295       Ni303   1.935       .  S
O295        C305   1.284       .  A
O296       Ni303   1.937       .  S
O296        C306   1.285       .  A
O297       Ni303   1.896       .  S
O297        C307   1.276       .  A
O298       Ni303   1.896       .  S
O298        C308   1.277       .  A
O299       Ni304   1.930       .  S
O299        C308   1.284       .  A
O300       Ni304   1.937       .  S
O300        C307   1.285       .  A
O301       Ni304   1.899       .  S
O301        C306   1.277       .  A
O302       Ni304   1.896       .  S
O302        C305   1.276       .  A
Ni303      Ni304   2.391       .  S
C305        C843   1.467       .  S
C306        C632   1.469       .  S
C307        C715   1.470       .  S
C308        C664   1.464       .  S
O309       Ni317   1.939       .  S
O309        C319   1.286       .  A
O310       Ni317   1.942       .  S
O310        C320   1.286       .  A
O311       Ni317   1.892       .  S
O311        C321   1.275       .  A
O312       Ni317   1.892       .  S
O312        C322   1.275       .  A
O313       Ni318   1.935       .  S
O313        C322   1.285       .  A
O314       Ni318   1.942       .  S
O314        C321   1.286       .  A
O315       Ni318   1.896       .  S
O315        C320   1.276       .  A
O316       Ni318   1.892       .  S
O316        C319   1.275       .  A
Ni317      Ni318   2.390       .  S
C319        C795   1.467       .  S
C320        C651   1.472       .  S
C321        C600   1.471       .  S
C322        C619   1.465       .  S
O323       Ni331   1.934       .  S
O323        C333   1.284       .  A
O324       Ni331   1.935       .  S
O324       C1806   1.285       .  A
O325       Ni331   1.895       .  S
O325        C335   1.276       .  A
O326       Ni331   1.895       .  S
O326       C1808   1.276       .  A
O327       Ni332   1.934       .  S
O327        C336   1.285       .  A
O328      Ni1804   1.943       .  S
O328        C335   1.287       .  A
O329       Ni332   1.900       .  S
O329        C334   1.277       .  A
O330       Ni332   1.894   1_655  S
O330       C1805   1.276       .  A
Ni331     Ni1804   2.391       .  S
Ni332      O1800   1.943   1_455  S
Ni332     Ni1803   2.391   1_455  S
C333       O1802   1.276       .  A
C333        C779   1.465       .  S
C334       O1796   1.285   1_455  A
C334        C635   1.469       .  S
C335       C1384   1.474       .  S
C336       O1798   1.276   1_455  A
C336        C616   1.467       .  S
O337       Ni345   1.933       .  S
O337        C347   1.285       .  A
O338       Ni345   1.936       .  S
O338        C348   1.285       .  A
O339       Ni345   1.894       .  S
O339        C349   1.276       .  A
O340       Ni345   1.892       .  S
O340        C350   1.275       .  A
O341       Ni346   1.940       .  S
O341        C350   1.286       .  A
O342       Ni346   1.930       .  S
O342        C349   1.284       .  A
O343       Ni346   1.901       .  S
O343        C348   1.277       .  A
O344       Ni346   1.897       .  S
O344        C347   1.275       .  A
Ni345      Ni346   2.391       .  S
C347       C1227   1.464       .  S
C348        C571   1.470       .  S
C349        C587   1.462       .  S
C350        C603   1.470       .  S
O351       Ni359   1.933       .  S
O351        C361   1.285       .  A
O352       Ni359   1.935       .  S
O352       C1834   1.285   1_455  A
O353      Ni1831   1.895       .  S
O353        C363   1.276       .  A
O354       Ni359   1.894       .  S
O354        C364   1.276       .  A
O355       Ni360   1.939       .  S
O355       C1836   1.286       .  A
O356       Ni360   1.930       .  S
O356        C363   1.283       .  A
O357       Ni360   1.899       .  S
O357        C362   1.277       .  A
O358       Ni360   1.894       .  S
O358       C1833   1.275       .  A
Ni359      O1825   1.895       .  S
Ni359     Ni1832   2.391   1_455  S
Ni360     Ni1831   2.391       .  S
C361       O1830   1.275   1_455  A
C361       C1176   1.462       .  S
C362       O1824   1.285       .  A
C362        C552   1.468       .  S
C363        C584   1.463       .  S
C364       O1827   1.286       .  A
C364       C1051   1.470       .  S
O365       Ni373   1.932       .  S
O365        C375   1.285       .  A
O366       Ni373   1.936       .  S
O366       C1848   1.285   1_455  A
O367       Ni373   1.897       .  S
O367       C1849   1.276   1_455  A
O368       Ni373   1.896       .  S
O368        C378   1.275       .  A
O369      Ni1846   1.941       .  S
O369        C378   1.286   1_655  A
O370       Ni374   1.933       .  S
O370        C377   1.285       .  A
O371       Ni374   1.901       .  S
O371        C376   1.277       .  A
O372      Ni1846   1.899       .  S
O372        C375   1.276   1_655  A
Ni373     Ni1846   2.391   1_455  S
Ni374      O1841   1.941       .  S
Ni374      O1844   1.899       .  S
Ni374     Ni1845   2.391       .  S
C375       C1131   1.464       .  S
C376       O1838   1.285       .  A
C376        C568   1.471       .  S
C377       O1839   1.276       .  A
C377        C536   1.464       .  S
C378        C811   1.470       .  S
O379       Ni387   1.936       .  S
O379        C389   1.285       .  A
O380       Ni387   1.938       .  S
O380        C390   1.285       .  A
O381       Ni387   1.898       .  S
O381        C391   1.276       .  A
O382       Ni387   1.897       .  S
O382        C392   1.276       .  A
O383       Ni388   1.940       .  S
O383        C392   1.286       .  A
O384       Ni388   1.932       .  S
O384        C391   1.285       .  A
O385       Ni388   1.897       .  S
O385        C390   1.276       .  A
O386       Ni388   1.896       .  S
O386        C389   1.276       .  A
Ni387      Ni388   2.391       .  S
C389       C1099   1.468       .  S
C390        C555   1.469       .  S
C391        C539   1.465       .  S
C392        C523   1.470       .  S
O393       Ni401   1.932       .  S
O393        C403   1.285       .  A
O394       Ni401   1.934   1_554  S
O394        C404   1.285       .  A
O395       Ni401   1.895       .  S
O395        C405   1.275       .  A
O396       Ni401   1.898       .  S
O396        C406   1.276       .  A
O397       Ni402   1.932       .  S
O397        C406   1.285       .  A
O398       Ni402   1.942       .  S
O398        C405   1.287       .  A
O399       Ni402   1.902   1_554  S
O399        C404   1.277       .  A
O400       Ni402   1.900       .  S
O400        C403   1.276       .  A
Ni401      Ni402   2.391       .  S
C403        C955   1.465       .  S
C404        C491   1.469       .  S
C405        C680   1.470       .  S
C406        C504   1.464       .  S
O407       Ni415   1.937       .  S
O407        C417   1.285       .  A
O408      Ni1887   1.938   1_554  S
O408        C418   1.285   1_655  A
O409       Ni415   1.896       .  S
O409        C419   1.276       .  A
O410      Ni1887   1.896       .  S
O410        C420   1.276   1_655  A
O411       Ni416   1.932       .  S
O411        C420   1.284       .  A
O412       Ni416   1.940   1_655  S
O412       C1891   1.286       .  A
O413       Ni416   1.900   1_554  S
O413        C418   1.277       .  A
O414       Ni416   1.894   1_655  S
O414       C1889   1.276       .  A
Ni415      O1880   1.938   1_556  S
Ni415      O1882   1.896       .  S
Ni415     Ni1888   2.391       .  S
Ni416     Ni1887   2.391   1_455  S
C417       O1886   1.276       .  A
C417        C936   1.467       .  S
C418        C472   1.471       .  S
C419       O1884   1.286       .  A
C419       C1112   1.472       .  S
C420        C507   1.463       .  S
O421       Ni429   1.937       .  S
O421        C431   1.285       .  A
O422      Ni1901   1.930       .  S
O422       C1904   1.284       .  A
O423       Ni429   1.899       .  S
O423        C433   1.276       .  A
O424       Ni429   1.899       .  S
O424        C434   1.277       .  A
O425       Ni430   1.935       .  S
O425        C434   1.284       .  A
O426       Ni430   1.932       .  S
O426        C433   1.285       .  A
O427       Ni430   1.899       .  S
O427        C432   1.276       .  A
O428       Ni430   1.898       .  S
O428        C431   1.276       .  A
Ni429      O1894   1.930       .  S
Ni429      Ni430   2.391       .  S
C431       C1339   1.470       .  S
C432       O1894   1.284       .  A
C432       C1928   1.464       .  S
C433       C1000   1.465       .  S
C434        C488   1.469       .  S
O435       Ni443   1.936       .  S
O435        C445   1.285       .  A
O436       Ni443   1.938       .  S
O436        C446   1.285       .  A
O437       Ni443   1.901       .  S
O437        C447   1.276       .  A
O438       Ni443   1.902       .  S
O438        C448   1.277       .  A
O439       Ni444   1.928       .  S
O439        C448   1.284       .  A
O440       Ni444   1.936       .  S
O440        C447   1.286       .  A
O441       Ni444   1.898       .  S
O441        C446   1.277       .  A
O442       Ni444   1.897       .  S
O442        C445   1.276       .  A
Ni443      Ni444   2.391       .  S
C445       C1035   1.465       .  S
C446        C475   1.470       .  S
C447        C520   1.470       .  S
C448        C459   1.464       .  S
C449        C454   1.380       .  A
C449        C450   1.402       .  A
C449       O1927   1.314       .  A
C450        C451   1.399       .  A
C450       H1933   1.082   1_455  S
C451        C460   1.363       .  A
C451        C452   1.380       .  A
C452        C453   1.403       .  A
C452        O458   1.315       .  A
C453        C454   1.401       .  A
C453        H462   1.082       .  S
C454        C457   1.364       .  A
O455       C1921   1.314       .  A
O455       C1928   1.330       .  A
C456       C1904   1.464       .  S
C456        C457   1.390       .  A
C456       O1927   1.330       .  A
C457        H463   1.082       .  S
O458        C459   1.330       .  A
C459        C460   1.389       .  A
C460        H464   1.082       .  S
H461       C1922   1.082       .  S
C465        C470   1.381       .  A
C465        C466   1.402       .  A
C465        O471   1.323   1_455  A
C466        C467   1.404       .  A
C466        H477   1.082   1_455  S
C467        C476   1.357       .  A
C467        C468   1.381       .  A
C468        C469   1.402       .  A
C468        O474   1.323       .  A
C469        C470   1.404       .  A
C469        H478   1.082       .  S
C470        C473   1.357       .  A
O471        C472   1.330   1_655  A
C472        C473   1.392       .  A
C473        H479   1.083       .  S
O474        C475   1.330       .  A
C475        C476   1.392       .  A
C476        H480   1.083       .  S
C481        C482   1.403       .  A
C481       C1958   1.381       .  A
C481        O487   1.323       .  A
C482       C1955   1.405       .  A
C482        H493   1.082       .  S
C483        C492   1.358       .  A
C483        C484   1.381       .  A
C483       C1954   1.405       .  A
C484        C485   1.401       .  A
C484        O490   1.321       .  A
C485        C486   1.402       .  A
C485        H494   1.082       .  S
C486        C489   1.356       .  A
C486       C1953   1.381       .  A
O487        C488   1.331       .  A
C488       C1961   1.391       .  A
C489       C1960   1.391       .  A
C489        H495   1.083       .  S
O490        C491   1.330       .  A
C491        C492   1.392       .  A
C492       H1968   1.083       .  S
H496       C1964   1.083       .  S
C497        C502   1.380       .  A
C497        C498   1.403       .  A
C497        O503   1.314       .  A
C498        C499   1.400       .  A
C498        H509   1.082       .  S
C499        C508   1.365       .  A
C499        C500   1.380       .  A
C500        C501   1.402       .  A
C500        O506   1.313   1_455  A
C501        C502   1.399       .  A
C501       H1982   1.082   1_455  S
C502        C505   1.364       .  A
O503        C504   1.330       .  A
C504        C505   1.389       .  A
C505       H1983   1.082       .  S
O506        C507   1.330   1_655  A
C507        C508   1.390       .  A
C508        H512   1.082       .  S
H510       C1973   1.082       .  S
H511       C1977   1.082       .  S
C513        C518   1.380       .  A
C513        C514   1.406       .  A
C513        O519   1.317       .  A
C514        C515   1.403       .  A
C514        H525   1.082       .  S
C515        C524   1.368       .  A
C515        C516   1.380       .  A
C516        C517   1.403       .  A
C516        O522   1.315       .  A
C517        C518   1.400       .  A
C517        H526   1.082       .  S
C518        C521   1.365       .  A
O519        C520   1.332       .  A
C520        C521   1.390       .  A
C521        H527   1.082       .  S
O522        C523   1.331       .  A
C523        C524   1.392       .  A
C524        H528   1.082       .  S
C529        C534   1.380       .  A
C529        C530   1.403       .  A
C529       O2007   1.314       .  A
C530        C531   1.399       .  A
C530       H2013   1.082       .  S
C531        C540   1.364       .  A
C531        C532   1.380       .  A
C532        C533   1.404       .  A
C532        O538   1.315       .  A
C533        C534   1.401       .  A
C533        H542   1.082       .  S
C534        C537   1.365       .  A
O535       C2001   1.314       .  A
O535       C2008   1.330       .  A
C536        C537   1.390       .  A
C536       O2007   1.330       .  A
C537        H543   1.082       .  S
O538        C539   1.331       .  A
C539        C540   1.389       .  A
C540        H544   1.082       .  S
H541       C2002   1.082   1_455  S
C545        C550   1.381       .  A
C545        C546   1.401       .  A
C545        O551   1.322       .  A
C546        C547   1.403       .  A
C546       H2029   1.082       .  S
C547        C556   1.356       .  A
C547        C548   1.381       .  A
C548        C549   1.402       .  A
C548        O554   1.322       .  A
C549        C550   1.404       .  A
C549        H558   1.082       .  S
C550        C553   1.357       .  A
O551        C552   1.330       .  A
C552        C553   1.392       .  A
C553        H559   1.083       .  S
O554        C555   1.330       .  A
C555        C556   1.392       .  A
C556        H560   1.083       .  S
H557       C2018   1.082   1_455  S
C561        C566   1.381       .  A
C561        C562   1.403       .  A
C561        O567   1.323       .  A
C562        C563   1.404       .  A
C562       H2045   1.082       .  S
C563        C572   1.358       .  A
C563        C564   1.381       .  A
C564        C565   1.402       .  A
C564        O570   1.322       .  A
C565        C566   1.403       .  A
C565        H574   1.082       .  S
C566        C569   1.357       .  A
O567        C568   1.331       .  A
C568        C569   1.392       .  A
C569        H575   1.083       .  S
O570        C571   1.330       .  A
C571        C572   1.392       .  A
C572        H576   1.083       .  S
H573       C2034   1.082   1_455  S
C577        C582   1.382       .  A
C577        C578   1.400       .  A
C577        O583   1.320       .  A
C578        C579   1.402       .  A
C578        H589   1.083       .  S
C579        C588   1.355       .  A
C579        C580   1.382       .  A
C580        C581   1.399       .  A
C580        O586   1.319       .  A
C581        C582   1.400       .  A
C581       H2062   1.083       .  S
C582        C585   1.353       .  A
O583        C584   1.329       .  A
C584        C585   1.390       .  A
C585       H2063   1.083       .  S
O586        C587   1.328       .  A
C587        C588   1.391       .  A
C588        H592   1.083       .  S
H590       C2053   1.083   1_455  S
H591       C2057   1.083   1_455  S
C593        C598   1.381       .  A
C593        C594   1.401       .  A
C593        O599   1.322       .  A
C594        C595   1.403       .  A
C594        H605   1.082       .  S
C595        C604   1.355       .  A
C595        C596   1.381       .  A
C596        C597   1.402       .  A
C596        O602   1.323       .  A
C597        C598   1.404       .  A
C597        H606   1.082       .  S
C598        C601   1.356       .  A
O599        C600   1.330       .  A
C600        C601   1.393       .  A
C601        H607   1.083       .  S
O602        C603   1.330       .  A
C603        C604   1.392       .  A
C604        H608   1.083       .  S
C609        C614   1.381       .  A
C609        C610   1.400       .  A
C609        O615   1.321       .  A
C610        C611   1.402       .  A
C610        H621   1.083       .  S
C611        C620   1.354       .  A
C611        C612   1.382       .  A
C612        C613   1.400       .  A
C612        O618   1.321       .  A
C613        C614   1.402       .  A
C613       H2094   1.082   1_455  S
C614        C617   1.355   1_455  A
O615        C616   1.329       .  A
C616        C617   1.391   1_455  A
C617       H2095   1.083       .  S
O618        C619   1.329       .  A
C619        C620   1.391       .  A
C620        H624   1.083       .  S
H622       C2085   1.082       .  S
H623       C2089   1.083       .  S
C625        C630   1.381       .  A
C625        C626   1.402       .  A
C625        O631   1.322       .  A
C626        C627   1.403       .  A
C626        H637   1.082       .  S
C627        C636   1.357       .  A
C627        C628   1.381       .  A
C628        C629   1.402       .  A
C628        O634   1.322   1_455  A
C629        C630   1.404       .  A
C629        H638   1.082   1_455  S
C630        C633   1.357       .  A
O631        C632   1.330       .  A
C632        C633   1.392       .  A
C633        H639   1.083       .  S
O634        C635   1.330   1_655  A
C635        C636   1.392       .  A
C636        H640   1.083       .  S
C641        C646   1.381       .  A
C641        C642   1.402       .  A
C641        O647   1.323   1_455  A
C642        C643   1.404       .  A
C642        H653   1.082   1_455  S
C643        C652   1.356       .  A
C643        C644   1.381       .  A
C644        C645   1.403       .  A
C644        O650   1.324       .  A
C645        C646   1.405       .  A
C645        H654   1.082       .  S
C646        C649   1.358       .  A
O647        C648   1.330   1_655  A
C648        C649   1.393       .  A
C649        H655   1.083       .  S
O650        C651   1.331       .  A
C651        C652   1.392       .  A
C652        H656   1.083       .  S
C657        C662   1.381       .  A
C657        C658   1.401       .  A
C657        O663   1.321       .  A
C658        C659   1.402       .  A
C658       H2141   1.083   1_455  S
C659        C668   1.355   1_455  A
C659        C660   1.382       .  A
C660        C661   1.399       .  A
C660        O666   1.320       .  A
C661        C662   1.401       .  A
C661        H670   1.082       .  S
C662        C665   1.354       .  A
O663        C664   1.329       .  A
C664        C665   1.390       .  A
C665        H671   1.083       .  S
O666        C667   1.329       .  A
C667        C668   1.391   1_455  A
C668       H2144   1.083       .  S
H669       C2130   1.083       .  S
H672       C2140   1.083       .  S
C673        C678   1.380       .  A
C673        C674   1.404       .  A
C673        O679   1.315       .  A
C674        C675   1.401   1_545  A
C674        H685   1.082   1_556  S
C675        C684   1.366       .  A
C675        C676   1.380       .  A
C676        C677   1.406       .  A
C676        O682   1.316       .  A
C677        C678   1.403   1_565  A
C677        H686   1.082       .  S
C678        C681   1.369       .  A
O679        C680   1.331       .  A
C680        C681   1.392       .  A
C681        H687   1.082       .  S
O682        C683   1.332       .  A
C683        C684   1.390       .  A
C684        H688   1.082       .  S
C689        C694   1.380       .  A
C689        C690   1.403       .  A
C689        O695   1.315       .  A
C690        C691   1.400       .  A
C690        H701   1.082       .  S
C691        C700   1.364       .  A
C691        C692   1.380       .  A
C692        C693   1.402       .  A
C692        O698   1.314       .  A
C693        C694   1.400       .  A
C693        H702   1.082       .  S
C694        C697   1.363       .  A
O695        C696   1.330       .  A
C696        C697   1.389       .  A
C697        H703   1.082       .  S
O698        C699   1.330       .  A
C699        C700   1.390       .  A
C700        H704   1.082       .  S
C705        C710   1.381       .  A
C705        C706   1.402       .  A
C705        O711   1.322       .  A
C706        C707   1.404       .  A
C706        H717   1.082       .  S
C707        C716   1.357       .  A
C707        C708   1.381       .  A
C708        C709   1.401       .  A
C708        O714   1.321       .  A
C709        C710   1.402       .  A
C709        H718   1.082       .  S
C710        C713   1.355       .  A
O711        C712   1.330       .  A
C712        C713   1.392       .  A
C713        H719   1.083       .  S
O714        C715   1.330       .  A
C715        C716   1.393       .  A
C716        H720   1.083       .  S
C721        C726   1.380       .  A
C721        C722   1.404       .  A
C721        O727   1.315       .  A
C722        C723   1.401       .  A
C722        H733   1.082       .  S
C723        C732   1.366       .  A
C723        C724   1.380       .  A
C724        C725   1.405       .  A
C724        O730   1.316       .  A
C725        C726   1.402       .  A
C725        H734   1.082       .  S
C726        C729   1.367       .  A
O727        C728   1.331       .  A
C728        C729   1.391       .  A
C729        H735   1.082       .  S
O730        C731   1.332       .  A
C731        C732   1.390       .  A
C732        H736   1.082       .  S
C737        C742   1.381       .  A
C737        C738   1.401       .  A
C737        O743   1.322       .  A
C738        C739   1.403       .  A
C738        H749   1.082       .  S
C739        C748   1.355       .  A
C739        C740   1.381       .  A
C740        C741   1.401       .  A
C740        O746   1.322       .  A
C741        C742   1.403       .  A
C741        H750   1.082       .  S
C742        C745   1.356       .  A
O743        C744   1.330       .  A
C744        C745   1.392       .  A
C745        H751   1.083       .  S
O746        C747   1.330       .  A
C747        C748   1.391       .  A
C748        H752   1.083       .  S
C753        C758   1.382       .  A
C753        C754   1.398       .  A
C753        O759   1.318       .  A
C754        C755   1.400       .  A
C754        H765   1.083       .  S
C755        C764   1.353       .  A
C755        C756   1.381       .  A
C756        C757   1.401       .  A
C756        O762   1.321       .  A
C757        C758   1.403       .  A
C757        H766   1.083       .  S
C758        C761   1.356       .  A
O759        C760   1.328       .  A
C760        C761   1.392       .  A
C761       H2239   1.083       .  S
O762        C763   1.330       .  A
C763        C764   1.390       .  A
C764        H768   1.083       .  S
H767       C2233   1.083       .  S
C769        C774   1.381       .  A
C769        C770   1.400       .  A
C769        O775   1.320       .  A
C770        C771   1.401       .  A
C770       H2253   1.083       .  S
C771        C780   1.354       .  A
C771        C772   1.381       .  A
C772        C773   1.401       .  A
C772        O778   1.321       .  A
C773        C774   1.403       .  A
C773        H782   1.082       .  S
C774        C777   1.356       .  A
O775        C776   1.329       .  A
C776        C777   1.391       .  A
C777        H783   1.083       .  S
O778        C779   1.329       .  A
C779        C780   1.391       .  A
C780       H2256   1.083       .  S
H781       C2242   1.083   1_455  S
H784       C2252   1.083   1_455  S
C785        C790   1.382       .  A
C785        C786   1.400       .  A
C785        O791   1.321       .  A
C786        C787   1.402       .  A
C786        H797   1.083       .  S
C787        C796   1.354       .  A
C787        C788   1.381       .  A
C788        C789   1.401       .  A
C788        O794   1.322       .  A
C789        C790   1.403       .  A
C789        H798   1.082       .  S
C790        C793   1.355       .  A
O791        C792   1.329       .  A
C792        C793   1.392       .  A
C793        H799   1.083       .  S
O794        C795   1.330       .  A
C795        C796   1.391       .  A
C796        H800   1.083       .  S
C801        C806   1.380       .  A
C801        C802   1.405       .  A
C801        O807   1.315       .  A
C802        C803   1.402       .  A
C802        H813   1.082       .  S
C803        C812   1.367       .  A
C803        C804   1.380       .  A
C804        C805   1.405       .  A
C804        O810   1.315       .  A
C805        C806   1.401       .  A
C805        H814   1.082       .  S
C806        C809   1.367       .  A
O807        C808   1.332       .  A
C808        C809   1.391       .  A
C809        H815   1.082       .  S
O810        C811   1.331       .  A
C811        C812   1.391       .  A
C812        H816   1.082   1_455  S
C817        C822   1.381       .  A
C817        C818   1.400       .  A
C817        O823   1.321       .  A
C818        C819   1.402       .  A
C818        H829   1.082       .  S
C819        C828   1.355       .  A
C819        C820   1.381       .  A
C820        C821   1.401       .  A
C820        O826   1.321       .  A
C821        C822   1.402       .  A
C821        H830   1.083       .  S
C822        C825   1.355       .  A
O823        C824   1.329       .  A
C824        C825   1.391       .  A
C825        H831   1.083       .  S
O826        C827   1.330       .  A
C827        C828   1.391       .  A
C828        H832   1.083       .  S
C833        C838   1.382       .  A
C833        C834   1.399       .  A
C833        O839   1.320       .  A
C834        C835   1.401       .  A
C834        H845   1.083       .  S
C835        C844   1.354       .  A
C835        C836   1.381       .  A
C836        C837   1.402       .  A
C836        O842   1.323       .  A
C837        C838   1.404       .  A
C837        H846   1.082       .  S
C838        C841   1.357       .  A
O839        C840   1.329       .  A
C840        C841   1.392       .  A
C841        H847   1.083       .  S
O842        C843   1.330       .  A
C843        C844   1.390       .  A
C844        H848   1.083       .  S
C849        C854   1.380       .  A
C849        C850   1.405       .  A
C849        O855   1.316       .  A
C850        C851   1.402       .  A
C850        H861   1.082       .  S
C851        C860   1.367       .  A
C851        C852   1.380       .  A
C852        C853   1.405       .  A
C852        O858   1.315       .  A
C853        C854   1.401       .  A
C853        H862   1.082       .  S
C854        C857   1.366       .  A
O855        C856   1.332       .  A
C856        C857   1.391       .  A
C857        H863   1.082       .  S
O858        C859   1.332       .  A
C859        C860   1.391       .  A
C860        H864   1.082       .  S
C865        C870   1.380       .  A
C865        C866   1.404       .  A
C865        O871   1.315       .  A
C866        C867   1.401       .  A
C866        H877   1.082       .  S
C867        C876   1.366       .  A
C867        C868   1.380       .  A
C868        C869   1.404       .  A
C868        O874   1.315       .  A
C869        C870   1.401       .  A
C869        H878   1.082       .  S
C870        C873   1.366       .  A
O871        C872   1.331       .  A
C872        C873   1.390       .  A
C873        H879   1.082       .  S
O874        C875   1.331       .  A
C875        C876   1.390       .  A
C876        H880   1.082       .  S
C881        C886   1.380       .  A
C881        C882   1.405       .  A
C881        O887   1.316       .  A
C882        C883   1.402       .  A
C882        H893   1.082       .  S
C883        C892   1.367       .  A
C883        C884   1.380       .  A
C884        C885   1.404       .  A
C884        O890   1.314       .  A
C885        C886   1.401       .  A
C885        H894   1.082       .  S
C886        C889   1.366       .  A
O887        C888   1.331       .  A
C888        C889   1.390       .  A
C889        H895   1.082       .  S
O890        C891   1.331       .  A
C891        C892   1.390       .  A
C892        H896   1.082       .  S
C897        C902   1.380       .  A
C897        C898   1.406       .  A
C897        O903   1.316       .  A
C898        C899   1.403       .  A
C898        H909   1.082       .  S
C899        C908   1.368       .  A
C899        C900   1.380       .  A
C900        C901   1.404       .  A
C900        O906   1.315       .  A
C901        C902   1.401       .  A
C901        H910   1.082       .  S
C902        C905   1.366       .  A
O903        C904   1.332       .  A
C904        C905   1.390       .  A
C905        H911   1.082       .  S
O906        C907   1.331       .  A
C907        C908   1.391       .  A
C908        H912   1.082       .  S
C913        C918   1.380       .  A
C913        C914   1.403       .  A
C913        O919   1.315       .  A
C914        C915   1.400       .  A
C914        H925   1.082       .  S
C915        C924   1.364       .  A
C915        C916   1.380       .  A
C916        C917   1.403       .  A
C916        O922   1.314       .  A
C917        C918   1.400       .  A
C917        H926   1.082       .  S
C918        C921   1.364       .  A
O919        C920   1.330       .  A
C920        C921   1.390       .  A
C921        H927   1.082       .  S
O922        C923   1.331       .  A
C923        C924   1.390       .  A
C924        H928   1.082       .  S
C929        C934   1.381       .  A
C929        C930   1.402       .  A
C929        O935   1.322       .  A
C930        C931   1.404       .  A
C930        H941   1.082       .  S
C931        C940   1.356       .  A
C931        C932   1.381       .  A
C932        C933   1.400       .  A
C932        O938   1.321       .  A
C933        C934   1.402       .  A
C933        H942   1.082       .  S
C934        C937   1.354       .  A
O935        C936   1.330       .  A
C936        C937   1.391       .  A
C937       H2415   1.083       .  S
O938        C939   1.329       .  A
C939        C940   1.392       .  A
C940        H944   1.083       .  S
H943       C2409   1.083   1_455  S
C945        C950   1.380       .  A
C945        C946   1.403       .  A
C945        O951   1.315       .  A
C946        C947   1.400       .  A
C946        H957   1.082       .  S
C947        C956   1.365       .  A
C947        C948   1.380       .  A
C948        C949   1.404       .  A
C948        O954   1.315       .  A
C949        C950   1.401       .  A
C949        H958   1.082       .  S
C950        C953   1.365       .  A
O951        C952   1.330       .  A
C952        C953   1.390       .  A
C953        H959   1.082       .  S
O954        C955   1.331       .  A
C955        C956   1.389       .  A
C956        H960   1.082       .  S
C961        C966   1.381       .  A
C961        C962   1.400   1_545  A
C961        O967   1.321       .  A
C962        C963   1.402       .  A
C962        H973   1.082       .  S
C963        C972   1.354       .  A
C963        C964   1.381       .  A
C964        C965   1.403   1_565  A
C964        O970   1.323       .  A
C965        C966   1.405       .  A
C965        H974   1.082       .  S
C966        C969   1.358       .  A
O967        C968   1.329       .  A
C968        C969   1.393       .  A
C969        H975   1.083       .  S
O970        C971   1.331       .  A
C971        C972   1.392       .  A
C972        H976   1.083       .  S
C977        C982   1.381       .  A
C977        C978   1.403       .  A
C977        O983   1.314       .  A
C978        C979   1.400       .  A
C978        H989   1.082       .  S
C979        C988   1.364       .  A
C979        C980   1.381       .  A
C980        C981   1.401       .  A
C980        O986   1.313       .  A
C981        C982   1.398       .  A
C981        H990   1.082       .  S
C982        C985   1.362       .  A
O983        C984   1.330       .  A
C984        C985   1.388       .  A
C985        H991   1.082       .  S
O986        C987   1.329       .  A
C987        C988   1.390       .  A
C988        H992   1.082       .  S
C993        C998   1.380       .  A
C993        C994   1.404       .  A
C993        O999   1.315       .  A
C994        C995   1.401       .  A
C994       H1005   1.082       .  S
C995       C1004   1.366       .  A
C995        C996   1.380       .  A
C996        C997   1.402       .  A
C996       O1002   1.314       .  A
C997        C998   1.399       .  A
C997       H1006   1.082       .  S
C998       C1001   1.364       .  A
O999       C1000   1.331       .  A
C1000      C1001   1.389       .  A
C1001      H1007   1.082       .  S
O1002      C1003   1.330       .  A
C1003      C1004   1.390       .  A
C1004      H1008   1.082       .  S
C1009      C1014   1.381       .  A
C1009      C1010   1.402       .  A
C1009      O1015   1.322       .  A
C1010      C1011   1.403       .  A
C1010      H1021   1.082       .  S
C1011      C1020   1.357       .  A
C1011      C1012   1.381       .  A
C1012      C1013   1.403       .  A
C1012      O1018   1.322       .  A
C1013      C1014   1.404       .  A
C1013      H1022   1.082       .  S
C1014      C1017   1.358       .  A
O1015      C1016   1.330       .  A
C1016      C1017   1.392       .  A
C1017      H1023   1.083       .  S
O1018      C1019   1.331       .  A
C1019      C1020   1.391       .  A
C1020      H1024   1.083       .  S
C1025      C1030   1.380       .  A
C1025      C1026   1.404       .  A
C1025      O1031   1.315       .  A
C1026      C1027   1.401       .  A
C1026      H1037   1.082       .  S
C1027      C1036   1.366       .  A
C1027      C1028   1.380       .  A
C1028      C1029   1.403       .  A
C1028      O1034   1.314       .  A
C1029      C1030   1.400       .  A
C1029      H1038   1.082       .  S
C1030      C1033   1.364       .  A
O1031      C1032   1.331       .  A
C1032      C1033   1.389       .  A
C1033      H1039   1.082       .  S
O1034      C1035   1.330       .  A
C1035      C1036   1.390       .  A
C1036      H1040   1.082       .  S
C1041      C1046   1.381       .  A
C1041      C1042   1.402       .  A
C1041      O1047   1.322       .  A
C1042      C1043   1.404       .  A
C1042      H1053   1.082       .  S
C1043      C1052   1.356       .  A
C1043      C1044   1.381       .  A
C1044      C1045   1.402       .  A
C1044      O1050   1.322       .  A
C1045      C1046   1.404       .  A
C1045      H1054   1.082       .  S
C1046      C1049   1.356       .  A
O1047      C1048   1.330       .  A
C1048      C1049   1.393       .  A
C1049      H1055   1.083       .  S
O1050      C1051   1.330       .  A
C1051      C1052   1.393       .  A
C1052      H1056   1.083       .  S
C1057      C1062   1.381       .  A
C1057      C1058   1.401       .  A
C1057      O1063   1.321       .  A
C1058      C1059   1.402       .  A
C1058      H1069   1.082       .  S
C1059      C1068   1.355       .  A
C1059      C1060   1.381       .  A
C1060      C1061   1.402       .  A
C1060      O1066   1.322       .  A
C1061      C1062   1.404       .  A
C1061      H1070   1.082       .  S
C1062      C1065   1.357       .  A
O1063      C1064   1.329       .  A
C1064      C1065   1.392       .  A
C1065      H1071   1.083       .  S
O1066      C1067   1.330       .  A
C1067      C1068   1.391       .  A
C1068      H1072   1.083       .  S
C1073      C1078   1.380       .  A
C1073      C1074   1.403       .  A
C1073      O1079   1.313       .  A
C1074      C1075   1.399       .  A
C1074      H1085   1.082       .  S
C1075      C1084   1.364       .  A
C1075      C1076   1.380       .  A
C1076      C1077   1.402       .  A
C1076      O1082   1.313       .  A
C1077      C1078   1.399       .  A
C1077      H1086   1.082       .  S
C1078      C1081   1.364       .  A
O1079      C1080   1.330       .  A
C1080      C1081   1.389       .  A
C1081      H1087   1.082       .  S
O1082      C1083   1.330       .  A
C1083      C1084   1.389       .  A
C1084      H1088   1.082       .  S
C1089      C1094   1.381       .  A
C1089      C1090   1.401       .  A
C1089      O1095   1.321       .  A
C1090      C1091   1.403       .  A
C1090      H1101   1.082       .  S
C1091      C1100   1.356       .  A
C1091      C1092   1.381       .  A
C1092      C1093   1.402       .  A
C1092      O1098   1.322       .  A
C1093      C1094   1.403       .  A
C1093      H1102   1.082       .  S
C1094      C1097   1.356       .  A
O1095      C1096   1.330       .  A
C1096      C1097   1.391       .  A
C1097      H1103   1.083       .  S
O1098      C1099   1.330       .  A
C1099      C1100   1.392       .  A
C1100      H1104   1.083       .  S
C1105      C1110   1.381       .  A
C1105      C1106   1.402       .  A
C1105      O1111   1.323       .  A
C1106      C1107   1.404       .  A
C1106      H1117   1.082       .  S
C1107      C1116   1.357       .  A
C1107      C1108   1.381       .  A
C1108      C1109   1.402       .  A
C1108      O1114   1.322       .  A
C1109      C1110   1.404       .  A
C1109      H1118   1.082   1_556  S
C1110      C1113   1.357       .  A
O1111      C1112   1.331       .  A
C1112      C1113   1.393       .  A
C1113      H1119   1.083   1_556  S
O1114      C1115   1.330       .  A
C1115      C1116   1.393       .  A
C1116      H1120   1.083       .  S
C1121      C1126   1.380       .  A
C1121      C1122   1.403       .  A
C1121      O1127   1.313       .  A
C1122      C1123   1.400       .  A
C1122      H1133   1.082       .  S
C1123      C1132   1.364       .  A
C1123      C1124   1.380       .  A
C1124      C1125   1.404   1_455  A
C1124      O1130   1.315   1_455  A
C1125      C1126   1.401   1_655  A
C1125      H1134   1.082       .  S
C1126      C1129   1.366       .  A
O1127      C1128   1.330       .  A
C1128      C1129   1.390       .  A
C1129      H1135   1.082   1_455  S
O1130      C1131   1.331   1_655  A
C1131      C1132   1.389       .  A
C1132      H1136   1.082       .  S
C1137      C1142   1.381   1_455  A
C1137      C1138   1.402       .  A
C1137      O1143   1.323       .  A
C1138      C2611   1.404   1_455  A
C1138      H1149   1.082       .  S
C1139      C1148   1.357       .  A
C1139      C1140   1.381       .  A
C1139      C2610   1.404       .  A
C1140      C1141   1.403       .  A
C1140      O1146   1.324       .  A
C1141      C2614   1.405       .  A
C1141      H1150   1.082       .  S
C1142      C1145   1.358       .  A
C1142      C2613   1.405       .  A
O1143      C1144   1.331       .  A
C1144      C1145   1.393   1_455  A
C1145      H1151   1.083       .  S
O1146      C1147   1.331       .  A
C1147      C1148   1.393       .  A
C1148      H1152   1.083       .  S
C1153      C1158   1.381       .  A
C1153      C1154   1.400       .  A
C1153      O1159   1.320       .  A
C1154      C1155   1.401       .  A
C1154      H1165   1.082       .  S
C1155      C1164   1.355       .  A
C1155      C1156   1.381       .  A
C1156      C1157   1.402       .  A
C1156      O1162   1.321       .  A
C1157      C1158   1.403       .  A
C1157      H1166   1.082       .  S
C1158      C1161   1.357       .  A
O1159      C1160   1.329       .  A
C1160      C1161   1.392       .  A
C1161      H1167   1.083       .  S
O1162      C1163   1.330       .  A
C1163      C1164   1.391       .  A
C1164      H1168   1.083       .  S
C1169      C1174   1.380       .  A
C1169      C1170   1.403       .  A
C1169      O1175   1.313       .  A
C1170      C1171   1.400       .  A
C1170      H2653   1.082   1_455  S
C1171      C1180   1.365       .  A
C1171      C1172   1.380       .  A
C1172      C1173   1.403       .  A
C1172      O1178   1.313       .  A
C1173      C1174   1.399       .  A
C1173      H1182   1.082       .  S
C1174      C1177   1.364       .  A
O1175      C1176   1.330       .  A
C1176      C1177   1.389       .  A
C1177      H1183   1.082       .  S
O1178      C1179   1.330       .  A
C1179      C1180   1.389       .  A
C1180      H1184   1.082   1_455  S
H1181      C2642   1.082       .  S
C1185      C1190   1.380   1_655  A
C1185      C2658   1.403       .  A
C1185      O1191   1.313   1_655  A
C1186      C1187   1.400       .  A
C1186      C2657   1.403       .  A
C1186      H1197   1.082       .  S
C1187      C1196   1.365       .  A
C1187      C1188   1.380       .  A
C1188      C2661   1.405       .  A
C1188      O1194   1.315       .  A
C1189      C1190   1.402       .  A
C1189      C2660   1.405   1_455  A
C1189      H1198   1.082       .  S
C1190      C1193   1.367       .  A
O1191      C1192   1.331       .  A
C1192      C1193   1.391       .  A
C1193      H1199   1.082       .  S
O1194      C1195   1.332       .  A
C1195      C1196   1.390       .  A
C1196      H1200   1.082       .  S
C1201      C1206   1.381       .  A
C1201      C1202   1.402       .  A
C1201      O1207   1.322       .  A
C1202      C1203   1.404       .  A
C1202      H1213   1.082       .  S
C1203      C1212   1.357       .  A
C1203      C1204   1.381       .  A
C1204      C1205   1.402       .  A
C1204      O1210   1.322       .  A
C1205      C1206   1.403       .  A
C1205      H1214   1.082       .  S
C1206      C1209   1.357       .  A
O1207      C1208   1.330       .  A
C1208      C1209   1.392       .  A
C1209      H1215   1.083       .  S
O1210      C1211   1.330       .  A
C1211      C1212   1.392       .  A
C1212      H1216   1.083       .  S
C1217      C1222   1.380       .  A
C1217      C1218   1.403       .  A
C1217      O1223   1.314       .  A
C1218      C1219   1.400       .  A
C1218      H1229   1.082       .  S
C1219      C1228   1.364       .  A
C1219      C1220   1.380       .  A
C1220      C1221   1.404       .  A
C1220      O1226   1.314       .  A
C1221      C1222   1.400       .  A
C1221      H1230   1.082       .  S
C1222      C1225   1.365       .  A
O1223      C1224   1.330       .  A
C1224      C1225   1.390       .  A
C1225      H1231   1.082       .  S
O1226      C1227   1.331       .  A
C1227      C1228   1.389       .  A
C1228      H1232   1.082       .  S
C1233      C1238   1.381       .  A
C1233      C1234   1.400       .  A
C1233      O1239   1.322       .  A
C1234      C1235   1.402       .  A
C1234      H1245   1.082       .  S
C1235      C1244   1.354       .  A
C1235      C1236   1.381       .  A
C1236      C1237   1.403       .  A
C1236      O1242   1.323       .  A
C1237      C1238   1.405       .  A
C1237      H1246   1.082       .  S
C1238      C1241   1.357       .  A
O1239      C1240   1.330       .  A
C1240      C1241   1.393       .  A
C1241      H1247   1.083       .  S
O1242      C1243   1.331       .  A
C1243      C1244   1.392       .  A
C1244      H1248   1.083       .  S
C1249      C1254   1.381       .  A
C1249      C1250   1.402       .  A
C1249      O1255   1.323       .  A
C1250      C1251   1.404       .  A
C1250      H1261   1.082       .  S
C1251      C1260   1.357       .  A
C1251      C1252   1.381       .  A
C1252      C1253   1.402       .  A
C1252      O1258   1.322       .  A
C1253      C1254   1.403       .  A
C1253      H1262   1.082       .  S
C1254      C1257   1.356       .  A
O1255      C1256   1.330       .  A
C1256      C1257   1.392       .  A
C1257      H1263   1.083       .  S
O1258      C1259   1.330       .  A
C1259      C1260   1.392       .  A
C1260      H1264   1.083       .  S
C1265      C1270   1.382       .  A
C1265      C1266   1.399       .  A
C1265      O1271   1.319       .  A
C1266      C1267   1.400       .  A
C1266      H1277   1.083       .  S
C1267      C1276   1.353       .  A
C1267      C1268   1.382       .  A
C1268      C1269   1.400       .  A
C1268      O1274   1.320       .  A
C1269      C1270   1.402       .  A
C1269      H1278   1.083       .  S
C1270      C1273   1.354       .  A
O1271      C1272   1.328       .  A
C1272      C1273   1.391       .  A
C1273      H1279   1.083       .  S
O1274      C1275   1.329       .  A
C1275      C1276   1.390       .  A
C1276      H1280   1.083       .  S
C1281      C1286   1.381       .  A
C1281      C1282   1.401       .  A
C1281      O1287   1.322       .  A
C1282      C1283   1.403       .  A
C1282      H1293   1.082   1_455  S
C1283      C1292   1.356       .  A
C1283      C1284   1.381       .  A
C1284      C1285   1.402       .  A
C1284      O1290   1.322       .  A
C1285      C1286   1.404       .  A
C1285      H1294   1.082       .  S
C1286      C1289   1.358       .  A
O1287      C1288   1.330       .  A
C1288      C1289   1.392       .  A
C1289      H1295   1.083       .  S
O1290      C1291   1.330       .  A
C1291      C1292   1.391       .  A
C1292      H2768   1.083   1_455  S
H1296      C2764   1.083       .  S
C1297      C1302   1.380   1_655  A
C1297      C2770   1.406       .  A
C1297      O1303   1.316   1_655  A
C1298      C1299   1.403       .  A
C1298      C2769   1.406       .  A
C1298      H1309   1.082       .  S
C1299      C1308   1.368       .  A
C1299      C1300   1.380       .  A
C1300      C2773   1.404       .  A
C1300      O1306   1.314       .  A
C1301      C1302   1.401       .  A
C1301      C2772   1.404   1_455  A
C1301      H1310   1.082       .  S
C1302      C1305   1.366       .  A
O1303      C1304   1.332       .  A
C1304      C1305   1.390       .  A
C1305      H1311   1.082       .  S
O1306      C1307   1.331       .  A
C1307      C1308   1.392       .  A
C1308      H1312   1.082       .  S
C1313      C1318   1.380       .  A
C1313      C1314   1.402       .  A
C1313      O1319   1.313       .  A
C1314      C1315   1.399       .  A
C1314      H1325   1.082       .  S
C1315      C1324   1.364       .  A
C1315      C1316   1.380       .  A
C1316      C1317   1.403       .  A
C1316      O1322   1.314       .  A
C1317      C1318   1.400       .  A
C1317      H1326   1.082       .  S
C1318      C1321   1.365       .  A
O1319      C1320   1.330       .  A
C1320      C1321   1.389       .  A
C1321      H1327   1.082       .  S
O1322      C1323   1.331       .  A
C1323      C1324   1.389       .  A
C1324      H1328   1.082       .  S
C1329      C1334   1.381       .  A
C1329      C1330   1.403   1_565  A
C1329      O1335   1.323       .  A
C1330      C1331   1.404       .  A
C1330      H1341   1.082       .  S
C1331      C1340   1.357       .  A
C1331      C1332   1.381       .  A
C1332      C1333   1.401   1_545  A
C1332      O1338   1.321       .  A
C1333      C1334   1.402       .  A
C1333      H1342   1.082       .  S
C1334      C1337   1.355       .  A
O1335      C1336   1.331       .  A
C1336      C1337   1.392       .  A
C1337      H1343   1.083       .  S
O1338      C1339   1.330       .  A
C1339      C1340   1.393       .  A
C1340      H1344   1.083       .  S
C1345      C1350   1.381       .  A
C1345      C1346   1.402       .  A
C1345      O1351   1.313       .  A
C1346      C1347   1.399       .  A
C1346      H1357   1.082       .  S
C1347      C1356   1.363       .  A
C1347      C1348   1.380       .  A
C1348      C1349   1.403       .  A
C1348      O1354   1.314       .  A
C1349      C1350   1.400       .  A
C1349      H1358   1.082       .  S
C1350      C1353   1.365       .  A
O1351      C1352   1.329       .  A
C1352      C1353   1.390       .  A
C1353      H1359   1.082       .  S
O1354      C1355   1.330       .  A
C1355      C1356   1.389       .  A
C1356      H1360   1.082       .  S
C1361      C1366   1.380       .  A
C1361      C1362   1.403       .  A
C1361      O1367   1.314       .  A
C1362      C1363   1.399       .  A
C1362      H1373   1.082       .  S
C1363      C1372   1.364       .  A
C1363      C1364   1.380       .  A
C1364      C1365   1.405       .  A
C1364      O1370   1.316       .  A
C1365      C1366   1.402       .  A
C1365      H1374   1.082       .  S
C1366      C1369   1.368       .  A
O1367      C1368   1.330       .  A
C1368      C1369   1.391       .  A
C1369      H1375   1.082       .  S
O1370      C1371   1.332       .  A
C1371      C1372   1.389       .  A
C1372      H1376   1.082       .  S
C1377      C1382   1.381       .  A
C1377      C1378   1.404       .  A
C1377      O1383   1.324       .  A
C1378      C1379   1.405       .  A
C1378      H1389   1.082       .  S
C1379      C1388   1.358       .  A
C1379      C1380   1.381       .  A
C1380      C1381   1.402       .  A
C1380      O1386   1.323       .  A
C1381      C1382   1.404       .  A
C1381      H1390   1.082       .  S
C1382      C1385   1.356       .  A
O1383      C1384   1.331       .  A
C1384      C1385   1.393       .  A
C1385      H1391   1.083       .  S
O1386      C1387   1.331       .  A
C1387      C1388   1.393       .  A
C1388      H1392   1.083       .  S
C1393      C1398   1.380       .  A
C1393      C1394   1.406       .  A
C1393      O1399   1.316       .  A
C1394      C1395   1.402       .  A
C1394      H1405   1.082       .  S
C1395      C1404   1.368       .  A
C1395      C1396   1.380       .  A
C1396      C1397   1.405       .  A
C1396      O1402   1.316       .  A
C1397      C1398   1.402       .  A
C1397      H1406   1.082       .  S
C1398      C1401   1.368       .  A
O1399      C1400   1.332       .  A
C1400      C1401   1.391       .  A
C1401      H1407   1.082       .  S
O1402      C1403   1.332       .  A
C1403      C1404   1.391       .  A
C1404      H1408   1.082       .  S
C1409      C1414   1.381       .  A
C1409      C1410   1.401       .  A
C1409      O1415   1.321       .  A
C1410      C1411   1.402       .  A
C1410      H2893   1.083   1_455  S
C1411      C1412   1.381       .  A
C1411      C2892   1.355       .  A
C1412      C1413   1.401       .  A
C1412      O1418   1.321       .  A
C1413      C1414   1.403       .  A
C1413      H1422   1.082       .  S
C1414      C1417   1.355       .  A
O1415      C1416   1.329       .  A
C1416      C1417   1.391       .  A
C1417      H1423   1.083       .  S
O1418      C1419   1.329       .  A
C1419      C1707   1.466       .  S
C1419      C2892   1.391       .  A
C1420      C2883   1.355       .  A
C1420      C2891   1.391       .  A
C1420      H1424   1.083       .  S
H1421      C2882   1.083       .  S
C1425      C1430   1.381       .  A
C1425      C1426   1.403   1_565  A
C1425      O2903   1.324       .  A
C1426      C1427   1.405       .  A
C1426      H1437   1.082       .  S
C1427      C1436   1.357       .  A
C1427      C1428   1.381       .  A
C1428      C1429   1.402   1_545  A
C1428      O1434   1.323       .  A
C1429      C1430   1.404       .  A
C1429      H1438   1.082       .  S
C1430      C1433   1.357       .  A
O1431      C1432   1.331       .  A
O1431      C2897   1.324       .  A
C1432      C2905   1.393       .  A
C1433      C2904   1.393       .  A
C1433      H1439   1.083       .  S
O1434      C1435   1.331       .  A
C1435      C1436   1.393       .  A
C1436      H1440   1.083       .  S
C1441      C1446   1.381       .  A
C1441      C1442   1.403       .  A
C1441      O1447   1.323       .  A
C1442      C1443   1.404       .  A
C1442      H1453   1.082       .  S
C1443      C1452   1.358       .  A
C1443      C1444   1.381       .  A
C1444      C1445   1.400       .  A
C1444      O1450   1.320       .  A
C1445      C1446   1.401       .  A
C1445      H1454   1.082       .  S
C1446      C1449   1.355       .  A
O1447      C1448   1.331       .  A
C1448      C1449   1.391       .  A
C1449      H1455   1.083       .  S
O1450      C1451   1.329       .  A
C1451      C1452   1.392       .  A
C1452      H1456   1.083       .  S
C1457      C1462   1.381       .  A
C1457      C1458   1.402       .  A
C1457      O1463   1.322       .  A
C1458      C1459   1.403       .  A
C1458      H1469   1.082       .  S
C1459      C1468   1.358       .  A
C1459      C1460   1.381       .  A
C1460      C1461   1.402       .  A
C1460      O1466   1.321       .  A
C1461      C1462   1.403       .  A
C1461      H1470   1.083       .  S
C1462      C1465   1.357       .  A
O1463      C1464   1.330       .  A
C1464      C1465   1.392       .  A
C1465      H1471   1.083       .  S
O1466      C1467   1.330       .  A
C1467      C1468   1.392       .  A
C1468      H1472   1.083       .  S
O1473     Ni1481   1.934       .  S
O1473      C1483   1.285       .  A
O1474     Ni1481   1.936       .  S
O1474      C1484   1.285       .  A
O1475     Ni1481   1.901       .  S
O1475      C1485   1.277       .  A
O1476     Ni1481   1.898       .  S
O1476      C1486   1.276       .  A
O1477     Ni1482   1.942       .  S
O1477      C1486   1.286       .  A
O1478     Ni1482   1.935       .  S
O1478      C1485   1.285       .  A
O1479     Ni1482   1.897       .  S
O1479      C1484   1.277       .  A
O1480     Ni1482   1.896       .  S
O1480      C1483   1.276       .  A
Ni1481    Ni1482   2.390       .  S
C1483      C2888   1.466       .  S
C1484      C2920   1.469       .  S
C1485      C2936   1.470       .  S
C1486      C2904   1.474       .  S
O1487     Ni1495   1.939       .  S
O1487      C1497   1.286       .  A
O1488     Ni1495   1.939       .  S
O1488      C1498   1.286       .  A
O1489     Ni1495   1.904       .  S
O1489      C1499   1.278       .  A
O1490     Ni1495   1.900       .  S
O1490      C1500   1.277       .  A
O1491     Ni1496   1.940       .  S
O1491      C1500   1.286       .  A
O1492     Ni1496   1.932       .  S
O1492      C1499   1.284       .  A
O1493     Ni1496   1.900       .  S
O1493      C1498   1.276       .  A
O1494     Ni1496   1.896       .  S
O1494      C1497   1.275       .  A
Ni1495    Ni1496   2.390       .  S
C1497      C2840   1.467       .  S
C1498      C2875   1.470       .  S
C1499      C2939   1.470       .  S
C1500      C2859   1.474       .  S
O1501     Ni1509   1.932       .  S
O1501      C1511   1.284       .  A
O1502     Ni1509   1.933       .  S
O1502      C1512   1.284       .  A
O1503     Ni1509   1.898       .  S
O1503      C1513   1.276       .  A
O1504     Ni1509   1.895       .  S
O1504      C1514   1.276       .  A
O1505     Ni1510   1.938       .  S
O1505      C1514   1.285       .  A
O1506     Ni1510   1.928       .  S
O1506      C1513   1.284       .  A
O1507     Ni1510   1.899       .  S
O1507      C1512   1.277       .  A
O1508     Ni1510   1.896       .  S
O1508      C1511   1.276       .  A
Ni1509    Ni1510   2.392       .  S
C1511      C2792   1.462       .  S
C1512      C2923   1.467       .  S
C1513      C2827   1.462       .  S
C1514      C2808   1.471       .  S
O1515     Ni1523   1.936       .  S
O1515      C1525   1.285       .  A
O1516     Ni1523   1.939       .  S
O1516      C1526   1.286       .  A
O1517     Ni1523   1.896       .  S
O1517      C1527   1.275       .  A
O1518     Ni1523   1.897       .  S
O1518      C1528   1.275       .  A
O1519     Ni1524   1.940       .  S
O1519      C1528   1.287       .  A
O1520     Ni1524   1.931       .  S
O1520      C1527   1.284       .  A
O1521     Ni1524   1.901       .  S
O1521      C1526   1.276       .  A
O1522     Ni1524   1.900       .  S
O1522      C1525   1.277       .  A
Ni1523    Ni1524   2.391       .  S
C1525      C2760   1.469       .  S
C1526      C2872   1.471       .  S
C1527      C2824   1.462       .  S
C1528      C2776   1.470       .  S
O1529     Ni1537   1.934       .  S
O1529      C1539   1.285       .  A
O1530     Ni1537   1.936       .  S
O1530      C1540   1.285       .  A
O1531     Ni1537   1.892       .  S
O1531      C1541   1.275       .  A
O1532     Ni1537   1.892       .  S
O1532      C1542   1.276       .  A
O1533     Ni1538   1.940       .  S
O1533      C1542   1.286       .  A
O1534     Ni1538   1.931       .  S
O1534      C1541   1.284       .  A
O1535     Ni1538   1.899       .  S
O1535      C1540   1.277       .  A
O1536     Ni1538   1.896       .  S
O1536      C1539   1.275       .  A
Ni1537    Ni1538   2.391       .  S
C1539      C2696   1.464       .  S
C1540      C2731   1.470       .  S
C1541      C2744   1.462       .  S
C1542      C2715   1.471       .  S
O1543     Ni1551   1.934       .  S
O1543      C1553   1.285       .  A
O1544     Ni1551   1.937       .  S
O1544      C1554   1.285       .  A
O1545     Ni1551   1.892       .  S
O1545      C1555   1.276       .  A
O1546     Ni1551   1.892       .  S
O1546      C1556   1.275       .  A
O1547     Ni1552   1.939       .  S
O1547      C1556   1.286       .  A
O1548     Ni1552   1.931       .  S
O1548      C1555   1.284       .  A
O1549     Ni1552   1.899       .  S
O1549      C1554   1.277       .  A
O1550     Ni1552   1.894       .  S
O1550      C1553   1.275       .  A
Ni1551    Ni1552   2.392       .  S
C1553      C2651   1.463       .  S
C1554      C2683   1.470       .  S
C1555      C2747   1.463       .  S
C1556      C2664   1.467       .  S
O1557     Ni1565   1.937   1_554  S
O1557      C1567   1.285       .  A
O1558     Ni1565   1.939       .  S
O1558      C1568   1.285       .  A
O1559     Ni1565   1.900       .  S
O1559      C1569   1.277       .  A
O1560     Ni1565   1.899       .  S
O1560      C1570   1.276       .  A
O1561     Ni1566   1.940       .  S
O1561      C1570   1.286       .  A
O1562     Ni1566   1.931       .  S
O1562      C1569   1.284       .  A
O1563     Ni1566   1.896       .  S
O1563      C1568   1.276       .  A
O1564     Ni1566   1.894   1_554  S
O1564      C1567   1.275       .  A
Ni1565    Ni1566   2.391       .  S
C1567      C2600   1.464       .  S
C1568      C2728   1.469       .  S
C1569      C2632   1.466       .  S
C1570      C2616   1.473       .  S
O1571     Ni1579   1.935   1_554  S
O1571      C1581   1.285       .  A
O1572     Ni1579   1.936       .  S
O1572      C1582   1.285       .  A
O1573     Ni1579   1.898       .  S
O1573      C1583   1.277       .  A
O1574     Ni1579   1.897       .  S
O1574      C1584   1.276       .  A
O1575     Ni1580   1.939       .  S
O1575      C1584   1.286       .  A
O1576     Ni1580   1.931       .  S
O1576      C1583   1.284       .  A
O1577     Ni1580   1.900       .  S
O1577      C1582   1.277       .  A
O1578     Ni1580   1.898   1_554  S
O1578      C1581   1.276       .  A
Ni1579    Ni1580   2.390       .  S
C1581      C2568   1.467       .  S
C1582      C2680   1.470       .  S
C1583      C2635   1.466       .  S
C1584      C2587   1.472       .  S
O1585     Ni1593   1.933       .  S
O1585      C1595   1.285       .  A
O1586     Ni1593   1.933       .  S
O1586      C1596   1.284       .  A
O1587     Ni1593   1.895       .  S
O1587      C1597   1.276       .  A
O1588     Ni1593   1.896       .  S
O1588      C1598   1.275       .  A
O1589     Ni1594   1.931       .  S
O1589      C1598   1.284       .  A
O1590     Ni1594   1.940       .  S
O1590      C1597   1.286       .  A
O1591     Ni1594   1.901       .  S
O1591      C1596   1.277       .  A
O1592     Ni1594   1.899       .  S
O1592      C1595   1.276       .  A
Ni1593    Ni1594   2.391       .  S
C1595      C2504   1.465       .  S
C1596      C2536   1.468       .  S
C1597      C2520   1.471       .  S
C1598      C2552   1.462       .  S
O1599     Ni1607   1.934       .  S
O1599      C1609   1.285       .  A
O1600     Ni1607   1.935       .  S
O1600      C1610   1.285       .  A
O1601     Ni1607   1.895       .  S
O1601      C1611   1.276       .  A
O1602     Ni1607   1.895       .  S
O1602      C1612   1.275       .  A
O1603     Ni1608   1.932       .  S
O1603      C1612   1.284       .  A
O1604     Ni1608   1.943       .  S
O1604      C1611   1.287       .  A
O1605     Ni1608   1.901       .  S
O1605      C1610   1.277       .  A
O1606     Ni1608   1.897       .  S
O1606      C1609   1.276       .  A
Ni1607    Ni1608   2.391       .  S
C1609      C2475   1.464       .  S
C1610      C2488   1.470       .  S
C1611      C2907   1.473       .  S
C1612      C2555   1.462       .  S
O1613     Ni1621   1.935       .  S
O1613      C1623   1.285       .  A
O1614     Ni1621   1.926       .  S
O1614      C1624   1.283       .  A
O1615     Ni1621   1.901       .  S
O1615      C1625   1.276       .  A
O1616     Ni1621   1.902       .  S
O1616      C1626   1.278       .  A
O1617     Ni1622   1.934       .  S
O1617      C1626   1.284       .  A
O1618     Ni1622   1.933       .  S
O1618      C1625   1.285       .  A
O1619     Ni1622   1.899       .  S
O1619      C1624   1.276       .  A
O1620     Ni1622   1.898       .  S
O1620      C1623   1.276       .  A
Ni1621    Ni1622   2.391       .  S
C1623      C2440   1.470       .  S
C1624      C2459   1.461       .  S
C1625      C2424   1.466       .  S
C1626      C2491   1.470       .  S
O1627     Ni1635   1.937       .  S
O1627      C1637   1.285       .  A
O1628     Ni1635   1.938       .  S
O1628      C1638   1.285       .  A
O1629     Ni1635   1.897       .  S
O1629      C1639   1.275       .  A
O1630     Ni1635   1.897       .  S
O1630      C1640   1.276       .  A
O1631     Ni1636   1.927       .  S
O1631      C1640   1.284       .  A
O1632     Ni1636   1.936       .  S
O1632      C1639   1.286       .  A
O1633     Ni1636   1.895       .  S
O1633      C1638   1.276       .  A
O1634     Ni1636   1.895       .  S
O1634      C1637   1.276       .  A
Ni1635    Ni1636   2.392       .  S
C1637      C2411   1.468       .  S
C1638      C2539   1.468       .  S
C1639      C2667   1.467       .  S
C1640      C2456   1.461       .  S
O1641     Ni1649   1.935       .  S
O1641      C1651   1.285       .  A
O1642     Ni1649   1.937   1_554  S
O1642      C1652   1.285       .  A
O1643     Ni1649   1.897       .  S
O1643      C1653   1.276       .  A
O1644     Ni1649   1.899       .  S
O1644      C1654   1.276       .  A
O1645     Ni1650   1.932       .  S
O1645      C1654   1.285       .  A
O1646     Ni1650   1.942       .  S
O1646      C1653   1.286       .  A
O1647     Ni1650   1.902   1_554  S
O1647      C1652   1.276       .  A
O1648     Ni1650   1.900       .  S
O1648      C1651   1.276       .  A
Ni1649    Ni1650   2.391       .  S
C1651      C2360   1.467       .  S
C1652      C2376   1.469       .  S
C1653      C2619   1.474       .  S
C1654      C2395   1.465       .  S
O1655     Ni1663   1.934       .  S
O1655      C1665   1.285       .  A
O1656     Ni1663   1.936   1_554  S
O1656      C1666   1.285       .  A
O1657     Ni1663   1.898       .  S
O1657      C1667   1.276       .  A
O1658     Ni1663   1.899       .  S
O1658      C1668   1.276       .  A
O1659     Ni1664   1.931       .  S
O1659      C1668   1.284       .  A
O1660     Ni1664   1.940       .  S
O1660      C1667   1.286       .  A
O1661     Ni1664   1.900   1_554  S
O1661      C1666   1.276       .  A
O1662     Ni1664   1.898       .  S
O1662      C1665   1.276       .  A
Ni1663    Ni1664   2.391       .  S
C1665      C2312   1.467       .  S
C1666      C2344   1.467       .  S
C1667      C2331   1.470       .  S
C1668      C2392   1.465       .  S
O1669     Ni1677   1.936       .  S
O1669      C1679   1.285       .  A
O1670     Ni1677   1.940       .  S
O1670      C1680   1.286       .  A
O1671     Ni1677   1.895       .  S
O1671      C1681   1.275       .  A
O1672     Ni1677   1.897       .  S
O1672      C1682   1.276       .  A
O1673     Ni1678   1.932       .  S
O1673      C1682   1.284       .  A
O1674     Ni1678   1.941       .  S
O1674      C1681   1.287       .  A
O1675     Ni1678   1.898       .  S
O1675      C1680   1.276       .  A
O1676     Ni1678   1.894       .  S
O1676      C1679   1.276       .  A
Ni1677    Ni1678   2.391       .  S
C1679      C2264   1.466       .  S
C1680      C2379   1.469       .  S
C1681      C2280   1.469       .  S
C1682      C2296   1.466       .  S
O1683     Ni1691   1.930       .  S
O1683      C1693   1.284       .  A
O1684     Ni1691   1.934       .  S
O1684      C1694   1.285       .  A
O1685     Ni1691   1.896       .  S
O1685      C1695   1.275       .  A
O1686     Ni1691   1.898       .  S
O1686      C1696   1.277       .  A
O1687     Ni1692   1.932       .  S
O1687      C1696   1.284       .  A
O1688     Ni1692   1.941       .  S
O1688      C1695   1.286       .  A
O1689     Ni1692   1.901       .  S
O1689      C1694   1.276       .  A
O1690     Ni1692   1.899       .  S
O1690      C1693   1.277       .  A
Ni1691    Ni1692   2.391       .  S
C1693      C2248   1.465       .  S
C1694      C2347   1.467       .  S
C1695      C2779   1.470       .  S
C1696      C2299   1.466       .  S
O1698     Ni1705   1.937       .  S
O1698      C1708   1.285   1_455  A
O1699     Ni1705   1.896       .  S
O1699      C1709   1.276   1_455  A
O1700      C1710   1.276       .  A
O1701     Ni1706   1.940   1_455  S
O1702     Ni1706   1.930       .  S
O1702      C1709   1.284       .  A
O1703     Ni1706   1.896       .  S
O1703      C1708   1.276       .  A
O1704     Ni1706   1.892       .  S
O1704      C1707   1.275   1_655  A
Ni1705    Ni1706   2.391   1_455  S
C1708      C2219   1.467       .  S
C1709      C2232   1.463       .  S
C1710      C2443   1.471       .  S
O1711     Ni1719   1.934       .  S
O1711      C1721   1.285       .  A
O1712     Ni1719   1.937       .  S
O1712      C1722   1.285       .  A
O1713     Ni1719   1.894       .  S
O1713      C1723   1.276       .  A
O1714     Ni1719   1.893       .  S
O1714      C1724   1.276       .  A
O1715     Ni1720   1.940       .  S
O1715      C1724   1.286       .  A
O1716     Ni1720   1.931       .  S
O1716      C1723   1.284       .  A
O1717     Ni1720   1.900       .  S
O1717      C1722   1.276       .  A
O1718     Ni1720   1.900       .  S
O1718      C1721   1.276       .  A
Ni1719    Ni1720   2.391       .  S
C1721      C2843   1.466       .  S
C1722      C2200   1.468       .  S
C1723      C2235   1.463       .  S
C1724      C2184   1.470       .  S
O1725     Ni1733   1.933   1_554  S
O1725      C1735   1.285       .  A
O1726     Ni1733   1.936       .  S
O1726      C1736   1.285       .  A
O1727     Ni1733   1.897       .  S
O1727      C1737   1.276       .  A
O1728     Ni1733   1.897       .  S
O1728      C1738   1.275       .  A
O1729     Ni1734   1.940       .  S
O1729      C1738   1.287       .  A
O1730     Ni1734   1.933       .  S
O1730      C1737   1.285       .  A
O1731     Ni1734   1.896       .  S
O1731      C1736   1.276       .  A
O1732     Ni1734   1.896   1_554  S
O1732      C1735   1.275       .  A
Ni1733    Ni1734   2.391       .  S
C1735      C2795   1.464       .  S
C1736      C2216   1.468       .  S
C1737      C2171   1.464       .  S
C1738      C2155   1.470       .  S
O1739     Ni1747   1.935   1_554  S
O1739      C1749   1.285       .  A
O1740     Ni1747   1.936       .  S
O1741      C1751   1.277   1_455  A
O1742     Ni1747   1.900       .  S
O1742      C1752   1.276       .  A
O1743      C1752   1.286       .  A
O1744     Ni1748   1.928       .  S
O1744      C1751   1.284       .  A
O1745     Ni1748   1.902       .  S
O1745      C1750   1.276       .  A
O1746     Ni1748   1.900   1_554  S
C1749      C2763   1.469       .  S
C1750      C2203   1.469       .  S
C1751      C2168   1.464       .  S
C1752      C2328   1.470       .  S
O1753     Ni1761   1.939       .  S
O1753      C1763   1.286       .  A
O1754     Ni1761   1.941       .  S
O1755     Ni1761   1.895       .  S
O1755      C1765   1.276       .  A
O1756      C1766   1.276       .  A
O1757     Ni1762   1.930       .  S
O1757      C1766   1.284       .  A
O1758     Ni1762   1.939       .  S
O1759     Ni1762   1.899       .  S
O1759      C1764   1.276       .  A
O1760     Ni1762   1.895       .  S
C1763      C2363   1.467       .  S
C1764      C2120   1.472       .  S
C1765      C2712   1.471       .  S
C1766      C2139   1.464       .  S
O1767     Ni1775   1.935       .  S
O1767      C1777   1.284       .  A
O1768     Ni1775   1.937       .  S
O1768      C1778   1.285       .  A
O1769     Ni1775   1.896       .  S
O1769      C1779   1.276       .  A
O1770     Ni1775   1.896       .  S
O1770      C1780   1.277       .  A
O1771     Ni1776   1.930       .  S
O1771      C1780   1.284       .  A
O1772     Ni1776   1.937       .  S
O1772      C1779   1.285       .  A
O1773     Ni1776   1.899       .  S
O1773      C1778   1.277       .  A
O1774     Ni1776   1.896       .  S
O1774      C1777   1.276       .  A
Ni1775    Ni1776   2.391       .  S
C1777      C2315   1.467       .  S
C1778      C2104   1.469       .  S
C1779      C2187   1.470       .  S
C1780      C2136   1.464       .  S
O1781     Ni1789   1.939       .  S
O1781      C1791   1.286       .  A
O1782     Ni1789   1.942       .  S
O1782      C1792   1.286       .  A
O1783     Ni1789   1.892       .  S
O1783      C1793   1.275       .  A
O1784     Ni1789   1.892       .  S
O1784      C1794   1.275       .  A
O1785     Ni1790   1.935       .  S
O1785      C1794   1.285       .  A
O1786     Ni1790   1.942       .  S
O1786      C1793   1.286       .  A
O1787     Ni1790   1.896       .  S
O1787      C1792   1.276       .  A
O1788     Ni1790   1.892       .  S
O1788      C1791   1.275       .  A
Ni1789    Ni1790   2.390       .  S
C1791      C2267   1.467       .  S
C1792      C2123   1.472       .  S
C1793      C2072   1.471       .  S
C1794      C2091   1.465       .  S
O1795     Ni1803   1.934       .  S
O1795      C1805   1.284       .  A
O1796     Ni1803   1.935       .  S
O1797     Ni1803   1.895       .  S
O1797      C1807   1.276       .  A
O1798     Ni1803   1.895       .  S
O1799     Ni1804   1.934       .  S
O1799      C1808   1.285       .  A
O1800      C1807   1.287       .  A
O1801     Ni1804   1.900       .  S
O1801      C1806   1.277       .  A
O1802     Ni1804   1.894       .  S
C1805      C2251   1.465       .  S
C1806      C2107   1.469       .  S
C1807      C2856   1.474       .  S
C1808      C2088   1.467       .  S
O1809     Ni1817   1.933       .  S
O1809      C1819   1.285       .  A
O1810     Ni1817   1.936       .  S
O1810      C1820   1.285       .  A
O1811     Ni1817   1.894       .  S
O1811      C1821   1.276       .  A
O1812     Ni1817   1.892       .  S
O1812      C1822   1.275       .  A
O1813     Ni1818   1.940       .  S
O1813      C1822   1.286       .  A
O1814     Ni1818   1.930       .  S
O1814      C1821   1.284       .  A
O1815     Ni1818   1.901       .  S
O1815      C1820   1.277       .  A
O1816     Ni1818   1.897       .  S
O1816      C1819   1.275       .  A
Ni1817    Ni1818   2.391       .  S
C1819      C2699   1.464       .  S
C1820      C2043   1.470       .  S
C1821      C2059   1.462       .  S
C1822      C2075   1.470       .  S
O1823     Ni1831   1.933       .  S
O1823      C1833   1.285       .  A
O1824     Ni1831   1.935       .  S
O1825      C1835   1.276   1_455  A
O1826     Ni1831   1.894       .  S
O1826      C1836   1.276       .  A
O1827     Ni1832   1.939   1_455  S
O1828     Ni1832   1.930       .  S
O1828      C1835   1.283       .  A
O1829     Ni1832   1.899       .  S
O1829      C1834   1.277       .  A
O1830     Ni1832   1.894       .  S
C1833      C2648   1.462       .  S
C1834      C2024   1.468       .  S
C1835      C2056   1.463       .  S
C1836      C2523   1.470       .  S
O1837     Ni1845   1.932       .  S
O1837      C1847   1.285       .  A
O1838     Ni1845   1.936       .  S
O1839     Ni1845   1.897       .  S
O1840     Ni1845   1.896       .  S
O1840      C1850   1.275       .  A
O1841      C1850   1.286       .  A
O1842     Ni1846   1.933       .  S
O1842      C1849   1.285       .  A
O1843     Ni1846   1.901       .  S
O1843      C1848   1.277       .  A
O1844      C1847   1.276       .  A
C1847      C2603   1.464       .  S
C1848      C2040   1.471       .  S
C1849      C2008   1.464       .  S
C1850      C2283   1.470       .  S
O1851     Ni1859   1.936       .  S
O1851      C1861   1.285       .  A
O1852     Ni1859   1.938       .  S
O1852      C1862   1.285       .  A
O1853     Ni1859   1.898       .  S
O1853      C1863   1.276       .  A
O1854     Ni1859   1.897       .  S
O1854      C1864   1.276       .  A
O1855     Ni1860   1.940       .  S
O1855      C1864   1.286       .  A
O1856     Ni1860   1.932       .  S
O1856      C1863   1.285       .  A
O1857     Ni1860   1.897       .  S
O1857      C1862   1.276       .  A
O1858     Ni1860   1.896       .  S
O1858      C1861   1.276       .  A
Ni1859    Ni1860   2.391       .  S
C1861      C2571   1.468       .  S
C1862      C2027   1.469       .  S
C1863      C2011   1.465       .  S
C1864      C1995   1.470       .  S
O1865     Ni1873   1.932       .  S
O1865      C1875   1.285       .  A
O1866     Ni1873   1.934   1_554  S
O1866      C1876   1.285       .  A
O1867     Ni1873   1.895       .  S
O1867      C1877   1.275       .  A
O1868     Ni1873   1.898       .  S
O1868      C1878   1.276       .  A
O1869     Ni1874   1.932       .  S
O1869      C1878   1.285       .  A
O1870     Ni1874   1.942       .  S
O1870      C1877   1.287       .  A
O1871     Ni1874   1.902   1_554  S
O1871      C1876   1.277       .  A
O1872     Ni1874   1.900       .  S
O1872      C1875   1.276       .  A
Ni1873    Ni1874   2.391       .  S
C1875      C2427   1.465       .  S
C1876      C1963   1.469       .  S
C1877      C2152   1.470       .  S
C1878      C1976   1.464       .  S
O1879     Ni1887   1.937       .  S
O1879      C1889   1.285       .  A
O1880      C1890   1.285       .  A
O1881     Ni1887   1.896       .  S
O1881      C1891   1.276       .  A
O1882      C1892   1.276       .  A
O1883     Ni1888   1.932       .  S
O1883      C1892   1.284       .  A
O1884     Ni1888   1.940       .  S
O1885     Ni1888   1.900   1_554  S
O1885      C1890   1.277       .  A
O1886     Ni1888   1.894       .  S
C1889      C2408   1.467       .  S
C1890      C1944   1.470       .  S
C1891      C2584   1.472       .  S
C1892      C1979   1.463       .  S
O1893     Ni1901   1.937   1_655  S
O1893      C1903   1.285       .  A
O1895     Ni1901   1.899   1_655  S
O1895      C1905   1.276       .  A
O1896     Ni1901   1.899       .  S
O1896      C1906   1.277       .  A
O1897     Ni1902   1.935       .  S
O1897      C1906   1.284   1_655  A
O1898     Ni1902   1.932       .  S
O1898      C1905   1.285       .  A
O1899     Ni1902   1.899       .  S
O1899      C1904   1.276   1_655  A
O1900     Ni1902   1.898       .  S
O1900      C1903   1.276       .  A
Ni1901    Ni1902   2.391   1_455  S
C1903      C2811   1.470       .  S
C1905      C2472   1.465       .  S
C1906      C1960   1.469       .  S
O1907     Ni1915   1.936       .  S
O1907      C1917   1.285       .  A
O1908     Ni1915   1.938       .  S
O1908      C1918   1.285       .  A
O1909     Ni1915   1.901       .  S
O1909      C1919   1.276       .  A
O1910     Ni1915   1.902       .  S
O1910      C1920   1.277       .  A
O1911     Ni1916   1.928       .  S
O1911      C1920   1.284       .  A
O1912     Ni1916   1.936       .  S
O1912      C1919   1.286       .  A
O1913     Ni1916   1.898       .  S
O1913      C1918   1.277       .  A
O1914     Ni1916   1.897       .  S
O1914      C1917   1.276       .  A
Ni1915    Ni1916   2.391       .  S
C1917      C2507   1.465       .  S
C1918      C1947   1.470       .  S
C1919      C1992   1.470       .  S
C1920      C1931   1.464       .  S
C1921      C1926   1.380       .  A
C1921      C1922   1.402       .  A
C1922      C1923   1.399       .  A
C1923      C1932   1.363       .  A
C1923      C1924   1.380       .  A
C1924      C1925   1.403       .  A
C1924      O1930   1.315       .  A
C1925      C1926   1.401       .  A
C1925      H1934   1.082       .  S
C1926      C1929   1.364       .  A
C1928      C1929   1.390       .  A
C1929      H1935   1.082       .  S
O1930      C1931   1.330       .  A
C1931      C1932   1.389       .  A
C1932      H1936   1.082       .  S
C1937      C1942   1.381       .  A
C1937      C1938   1.402       .  A
C1937      O1943   1.323       .  A
C1938      C1939   1.404       .  A
C1938      H1949   1.082       .  S
C1939      C1948   1.357       .  A
C1939      C1940   1.381       .  A
C1940      C1941   1.402       .  A
C1940      O1946   1.323       .  A
C1941      C1942   1.404       .  A
C1941      H1950   1.082       .  S
C1942      C1945   1.357       .  A
O1943      C1944   1.330       .  A
C1944      C1945   1.392       .  A
C1945      H1951   1.083       .  S
O1946      C1947   1.330       .  A
C1947      C1948   1.392       .  A
C1948      H1952   1.083       .  S
C1953      C1954   1.403       .  A
C1953      O1959   1.323   1_455  A
C1954      H1965   1.082   1_455  S
C1955      C1964   1.358       .  A
C1955      C1956   1.381       .  A
C1956      C1957   1.401       .  A
C1956      O1962   1.321       .  A
C1957      C1958   1.402       .  A
C1957      H1966   1.082       .  S
C1958      C1961   1.356       .  A
O1959      C1960   1.331   1_655  A
C1961      H1967   1.083       .  S
O1962      C1963   1.330       .  A
C1963      C1964   1.392       .  A
C1969      C1974   1.380       .  A
C1969      C1970   1.403       .  A
C1969      O1975   1.314       .  A
C1970      C1971   1.400       .  A
C1970      H1981   1.082       .  S
C1971      C1980   1.365       .  A
C1971      C1972   1.380       .  A
C1972      C1973   1.402       .  A
C1972      O1978   1.313       .  A
C1973      C1974   1.399       .  A
C1974      C1977   1.364       .  A
O1975      C1976   1.330       .  A
C1976      C1977   1.389       .  A
O1978      C1979   1.330       .  A
C1979      C1980   1.390       .  A
C1980      H1984   1.082       .  S
C1985      C1990   1.380       .  A
C1985      C1986   1.406       .  A
C1985      O1991   1.317       .  A
C1986      C1987   1.403       .  A
C1986      H1997   1.082       .  S
C1987      C1996   1.368       .  A
C1987      C1988   1.380       .  A
C1988      C1989   1.403       .  A
C1988      O1994   1.315       .  A
C1989      C1990   1.400       .  A
C1989      H1998   1.082       .  S
C1990      C1993   1.365       .  A
O1991      C1992   1.332       .  A
C1992      C1993   1.390       .  A
C1993      H1999   1.082       .  S
O1994      C1995   1.331       .  A
C1995      C1996   1.392       .  A
C1996      H2000   1.082       .  S
C2001      C2006   1.380       .  A
C2001      C2002   1.403       .  A
C2002      C2003   1.399       .  A
C2003      C2012   1.364       .  A
C2003      C2004   1.380       .  A
C2004      C2005   1.404       .  A
C2004      O2010   1.315       .  A
C2005      C2006   1.401       .  A
C2005      H2014   1.082       .  S
C2006      C2009   1.365       .  A
C2008      C2009   1.390       .  A
C2009      H2015   1.082       .  S
O2010      C2011   1.331       .  A
C2011      C2012   1.389       .  A
C2012      H2016   1.082       .  S
C2017      C2022   1.381       .  A
C2017      C2018   1.401       .  A
C2017      O2023   1.322   1_655  A
C2018      C2019   1.403       .  A
C2019      C2028   1.356       .  A
C2019      C2020   1.381       .  A
C2020      C2021   1.402       .  A
C2020      O2026   1.322       .  A
C2021      C2022   1.404       .  A
C2021      H2030   1.082       .  S
C2022      C2025   1.357       .  A
O2023      C2024   1.330   1_455  A
C2024      C2025   1.392       .  A
C2025      H2031   1.083       .  S
O2026      C2027   1.330       .  A
C2027      C2028   1.392       .  A
C2028      H2032   1.083       .  S
C2033      C2038   1.381       .  A
C2033      C2034   1.403       .  A
C2033      O2039   1.323       .  A
C2034      C2035   1.404       .  A
C2035      C2044   1.358       .  A
C2035      C2036   1.381       .  A
C2036      C2037   1.402       .  A
C2036      O2042   1.322       .  A
C2037      C2038   1.403       .  A
C2037      H2046   1.082       .  S
C2038      C2041   1.357       .  A
O2039      C2040   1.331       .  A
C2040      C2041   1.392       .  A
C2041      H2047   1.083       .  S
O2042      C2043   1.330       .  A
C2043      C2044   1.392       .  A
C2044      H2048   1.083       .  S
C2049      C2054   1.382       .  A
C2049      C2050   1.400       .  A
C2049      O2055   1.320       .  A
C2050      C2051   1.402       .  A
C2050      H2061   1.083       .  S
C2051      C2060   1.355       .  A
C2051      C2052   1.382       .  A
C2052      C2053   1.399       .  A
C2052      O2058   1.319       .  A
C2053      C2054   1.400       .  A
C2054      C2057   1.353       .  A
O2055      C2056   1.329       .  A
C2056      C2057   1.390       .  A
O2058      C2059   1.328       .  A
C2059      C2060   1.391       .  A
C2060      H2064   1.083       .  S
C2065      C2070   1.381       .  A
C2065      C2066   1.401       .  A
C2065      O2071   1.322       .  A
C2066      C2067   1.403       .  A
C2066      H2077   1.082       .  S
C2067      C2076   1.355       .  A
C2067      C2068   1.381       .  A
C2068      C2069   1.402       .  A
C2068      O2074   1.323       .  A
C2069      C2070   1.404       .  A
C2069      H2078   1.082       .  S
C2070      C2073   1.356       .  A
O2071      C2072   1.330       .  A
C2072      C2073   1.393       .  A
C2073      H2079   1.083       .  S
O2074      C2075   1.330       .  A
C2075      C2076   1.392       .  A
C2076      H2080   1.083       .  S
C2081      C2086   1.381       .  A
C2081      C2082   1.400       .  A
C2081      O2087   1.321       .  A
C2082      C2083   1.402       .  A
C2082      H2093   1.083       .  S
C2083      C2092   1.354       .  A
C2083      C2084   1.382       .  A
C2084      C2085   1.400       .  A
C2084      O2090   1.321       .  A
C2085      C2086   1.402       .  A
C2086      C2089   1.355       .  A
O2087      C2088   1.329       .  A
C2088      C2089   1.391       .  A
O2090      C2091   1.329       .  A
C2091      C2092   1.391       .  A
C2092      H2096   1.083       .  S
C2097      C2102   1.381       .  A
C2097      C2098   1.402       .  A
C2097      O2103   1.322       .  A
C2098      C2099   1.403       .  A
C2098      H2109   1.082       .  S
C2099      C2108   1.357       .  A
C2099      C2100   1.381       .  A
C2100      C2101   1.402       .  A
C2100      O2106   1.322       .  A
C2101      C2102   1.404       .  A
C2101      H2110   1.082       .  S
C2102      C2105   1.357       .  A
O2103      C2104   1.330       .  A
C2104      C2105   1.392       .  A
C2105      H2111   1.083       .  S
O2106      C2107   1.330       .  A
C2107      C2108   1.392       .  A
C2108      H2112   1.083       .  S
C2113      C2118   1.381       .  A
C2113      C2114   1.402       .  A
C2113      O2119   1.323       .  A
C2114      C2115   1.404       .  A
C2114      H2125   1.082       .  S
C2115      C2124   1.356       .  A
C2115      C2116   1.381       .  A
C2116      C2117   1.403       .  A
C2116      O2122   1.324       .  A
C2117      C2118   1.405       .  A
C2117      H2126   1.082       .  S
C2118      C2121   1.358       .  A
O2119      C2120   1.330       .  A
C2120      C2121   1.393       .  A
C2121      H2127   1.083       .  S
O2122      C2123   1.331       .  A
C2123      C2124   1.392       .  A
C2124      H2128   1.083       .  S
C2129      C2134   1.381       .  A
C2129      C2130   1.401       .  A
C2129      O2135   1.321       .  A
C2130      C2131   1.402       .  A
C2131      C2140   1.355       .  A
C2131      C2132   1.382       .  A
C2132      C2133   1.399       .  A
C2132      O2138   1.320       .  A
C2133      C2134   1.401       .  A
C2133      H2142   1.083       .  S
C2134      C2137   1.354       .  A
O2135      C2136   1.329       .  A
C2136      C2137   1.390       .  A
C2137      H2143   1.083       .  S
O2138      C2139   1.329       .  A
C2139      C2140   1.391       .  A
C2145      C2150   1.380       .  A
C2145      C2146   1.404       .  A
C2145      O2151   1.315       .  A
C2146      C2147   1.401   1_545  A
C2146      H2157   1.082   1_556  S
C2147      C2156   1.366       .  A
C2147      C2148   1.380       .  A
C2148      C2149   1.406       .  A
C2148      O2154   1.316       .  A
C2149      C2150   1.403   1_565  A
C2149      H2158   1.082       .  S
C2150      C2153   1.368       .  A
O2151      C2152   1.331       .  A
C2152      C2153   1.392       .  A
C2153      H2159   1.082       .  S
O2154      C2155   1.332       .  A
C2155      C2156   1.390       .  A
C2156      H2160   1.082       .  S
C2161      C2166   1.380       .  A
C2161      C2162   1.403       .  A
C2161      O2167   1.315       .  A
C2162      C2163   1.400       .  A
C2162      H2173   1.082   1_655  S
C2163      C2172   1.364       .  A
C2163      C2164   1.380       .  A
C2164      C2165   1.402       .  A
C2164      O2170   1.314       .  A
C2165      C2166   1.400       .  A
C2165      H2174   1.082       .  S
C2166      C2169   1.363       .  A
O2167      C2168   1.330       .  A
C2168      C2169   1.389       .  A
C2169      H2175   1.082       .  S
O2170      C2171   1.330       .  A
C2171      C2172   1.390       .  A
C2172      H2176   1.082       .  S
C2177      C2182   1.381       .  A
C2177      C2178   1.402       .  A
C2177      O2183   1.322       .  A
C2178      C2179   1.404       .  A
C2178      H2189   1.082       .  S
C2179      C2188   1.357       .  A
C2179      C2180   1.381       .  A
C2180      C2181   1.401       .  A
C2180      O2186   1.321       .  A
C2181      C2182   1.402       .  A
C2181      H2190   1.082       .  S
C2182      C2185   1.355       .  A
O2183      C2184   1.330       .  A
C2184      C2185   1.392       .  A
C2185      H2191   1.083       .  S
O2186      C2187   1.330       .  A
C2187      C2188   1.393       .  A
C2188      H2192   1.083       .  S
C2193      C2198   1.380       .  A
C2193      C2194   1.404       .  A
C2193      O2199   1.315       .  A
C2194      C2195   1.401       .  A
C2194      H2205   1.082   1_655  S
C2195      C2204   1.366       .  A
C2195      C2196   1.380       .  A
C2196      C2197   1.405       .  A
C2196      O2202   1.316       .  A
C2197      C2198   1.402       .  A
C2197      H2206   1.082       .  S
C2198      C2201   1.367       .  A
O2199      C2200   1.331       .  A
C2200      C2201   1.391       .  A
C2201      H2207   1.082       .  S
O2202      C2203   1.332       .  A
C2203      C2204   1.390       .  A
C2204      H2208   1.082   1_655  S
C2209      C2214   1.381       .  A
C2209      C2210   1.401       .  A
C2209      O2215   1.322       .  A
C2210      C2211   1.403       .  A
C2210      H2221   1.082       .  S
C2211      C2220   1.355       .  A
C2211      C2212   1.381       .  A
C2212      C2213   1.401       .  A
C2212      O2218   1.322       .  A
C2213      C2214   1.403       .  A
C2213      H2222   1.082   1_655  S
C2214      C2217   1.356       .  A
O2215      C2216   1.330       .  A
C2216      C2217   1.392       .  A
C2217      H2223   1.083       .  S
O2218      C2219   1.330       .  A
C2219      C2220   1.391       .  A
C2220      H2224   1.083       .  S
C2225      C2230   1.382       .  A
C2225      C2226   1.398       .  A
C2225      O2231   1.318       .  A
C2226      C2227   1.400       .  A
C2226      H2237   1.083       .  S
C2227      C2236   1.353       .  A
C2227      C2228   1.381       .  A
C2228      C2229   1.401       .  A
C2228      O2234   1.321       .  A
C2229      C2230   1.403       .  A
C2229      H2238   1.083   1_655  S
C2230      C2233   1.356   1_655  A
O2231      C2232   1.328       .  A
C2232      C2233   1.392   1_655  A
O2234      C2235   1.330       .  A
C2235      C2236   1.390       .  A
C2236      H2240   1.083       .  S
C2241      C2246   1.381       .  A
C2241      C2242   1.400       .  A
C2241      O2247   1.320       .  A
C2242      C2243   1.401       .  A
C2243      C2252   1.354       .  A
C2243      C2244   1.381       .  A
C2244      C2245   1.401       .  A
C2244      O2250   1.321       .  A
C2245      C2246   1.403       .  A
C2245      H2254   1.082       .  S
C2246      C2249   1.356       .  A
O2247      C2248   1.329       .  A
C2248      C2249   1.391       .  A
C2249      H2255   1.083       .  S
O2250      C2251   1.329       .  A
C2251      C2252   1.391       .  A
C2257      C2262   1.382       .  A
C2257      C2258   1.400       .  A
C2257      O2263   1.321       .  A
C2258      C2259   1.402       .  A
C2258      H2269   1.083       .  S
C2259      C2268   1.354       .  A
C2259      C2260   1.381       .  A
C2260      C2261   1.401       .  A
C2260      O2266   1.322       .  A
C2261      C2262   1.403       .  A
C2261      H2270   1.082       .  S
C2262      C2265   1.355       .  A
O2263      C2264   1.329       .  A
C2264      C2265   1.392       .  A
C2265      H2271   1.083       .  S
O2266      C2267   1.330       .  A
C2267      C2268   1.391       .  A
C2268      H2272   1.083       .  S
C2273      C2278   1.380       .  A
C2273      C2274   1.405       .  A
C2273      O2279   1.315       .  A
C2274      C2275   1.402       .  A
C2274      H2285   1.082       .  S
C2275      C2284   1.367       .  A
C2275      C2276   1.380       .  A
C2276      C2277   1.405       .  A
C2276      O2282   1.315       .  A
C2277      C2278   1.401       .  A
C2277      H2286   1.082       .  S
C2278      C2281   1.367       .  A
O2279      C2280   1.332       .  A
C2280      C2281   1.391       .  A
C2281      H2287   1.082       .  S
O2282      C2283   1.331       .  A
C2283      C2284   1.391       .  A
C2284      H2288   1.082       .  S
C2289      C2294   1.381       .  A
C2289      C2290   1.400       .  A
C2289      O2295   1.321       .  A
C2290      C2291   1.402       .  A
C2290      H2301   1.082       .  S
C2291      C2300   1.355       .  A
C2291      C2292   1.381       .  A
C2292      C2293   1.401       .  A
C2292      O2298   1.321       .  A
C2293      C2294   1.402       .  A
C2293      H2302   1.082       .  S
C2294      C2297   1.355       .  A
O2295      C2296   1.329       .  A
C2296      C2297   1.391       .  A
C2297      H2303   1.083       .  S
O2298      C2299   1.330       .  A
C2299      C2300   1.391       .  A
C2300      H2304   1.083       .  S
C2305      C2310   1.382       .  A
C2305      C2306   1.399       .  A
C2305      O2311   1.320       .  A
C2306      C2307   1.401       .  A
C2306      H2317   1.083       .  S
C2307      C2316   1.354       .  A
C2307      C2308   1.381       .  A
C2308      C2309   1.402       .  A
C2308      O2314   1.323       .  A
C2309      C2310   1.404       .  A
C2309      H2318   1.082       .  S
C2310      C2313   1.357       .  A
O2311      C2312   1.329       .  A
C2312      C2313   1.392       .  A
C2313      H2319   1.083       .  S
O2314      C2315   1.330       .  A
C2315      C2316   1.390       .  A
C2316      H2320   1.083       .  S
C2321      C2326   1.380       .  A
C2321      C2322   1.405       .  A
C2321      O2327   1.316       .  A
C2322      C2323   1.402       .  A
C2322      H2333   1.082       .  S
C2323      C2332   1.367       .  A
C2323      C2324   1.380       .  A
C2324      C2325   1.405       .  A
C2324      O2330   1.315       .  A
C2325      C2326   1.401       .  A
C2325      H2334   1.082       .  S
C2326      C2329   1.366       .  A
O2327      C2328   1.332       .  A
C2328      C2329   1.391       .  A
C2329      H2335   1.082       .  S
O2330      C2331   1.332       .  A
C2331      C2332   1.391       .  A
C2332      H2336   1.082       .  S
C2337      C2342   1.380       .  A
C2337      C2338   1.404       .  A
C2337      O2343   1.315       .  A
C2338      C2339   1.401       .  A
C2338      H2349   1.082       .  S
C2339      C2348   1.366       .  A
C2339      C2340   1.380       .  A
C2340      C2341   1.404       .  A
C2340      O2346   1.315       .  A
C2341      C2342   1.401       .  A
C2341      H2350   1.082       .  S
C2342      C2345   1.366       .  A
O2343      C2344   1.331       .  A
C2344      C2345   1.390       .  A
C2345      H2351   1.082       .  S
O2346      C2347   1.331       .  A
C2347      C2348   1.390       .  A
C2348      H2352   1.082       .  S
C2353      C2358   1.380       .  A
C2353      C2354   1.405       .  A
C2353      O2359   1.316       .  A
C2354      C2355   1.402       .  A
C2354      H2365   1.082       .  S
C2355      C2364   1.367       .  A
C2355      C2356   1.380       .  A
C2356      C2357   1.404       .  A
C2356      O2362   1.314       .  A
C2357      C2358   1.401       .  A
C2357      H2366   1.082   1_655  S
C2358      C2361   1.366       .  A
O2359      C2360   1.331       .  A
C2360      C2361   1.390       .  A
C2361      H2367   1.082       .  S
O2362      C2363   1.331       .  A
C2363      C2364   1.390       .  A
C2364      H2368   1.082       .  S
C2369      C2374   1.380       .  A
C2369      C2370   1.406       .  A
C2369      O2375   1.316       .  A
C2370      C2371   1.403       .  A
C2370      H2381   1.082       .  S
C2371      C2380   1.368       .  A
C2371      C2372   1.380       .  A
C2372      C2373   1.404       .  A
C2372      O2378   1.315       .  A
C2373      C2374   1.401       .  A
C2373      H2382   1.082       .  S
C2374      C2377   1.366       .  A
O2375      C2376   1.332       .  A
C2376      C2377   1.390       .  A
C2377      H2383   1.082       .  S
O2378      C2379   1.331       .  A
C2379      C2380   1.391       .  A
C2380      H2384   1.082       .  S
C2385      C2390   1.380       .  A
C2385      C2386   1.403       .  A
C2385      O2391   1.315       .  A
C2386      C2387   1.400       .  A
C2386      H2397   1.082       .  S
C2387      C2396   1.364       .  A
C2387      C2388   1.380       .  A
C2388      C2389   1.403       .  A
C2388      O2394   1.314       .  A
C2389      C2390   1.400       .  A
C2389      H2398   1.082       .  S
C2390      C2393   1.364       .  A
O2391      C2392   1.330       .  A
C2392      C2393   1.390       .  A
C2393      H2399   1.082       .  S
O2394      C2395   1.331       .  A
C2395      C2396   1.390       .  A
C2396      H2400   1.082       .  S
C2401      C2406   1.381       .  A
C2401      C2402   1.402       .  A
C2401      O2407   1.322       .  A
C2402      C2403   1.404       .  A
C2402      H2413   1.082       .  S
C2403      C2412   1.356       .  A
C2403      C2404   1.381       .  A
C2404      C2405   1.400       .  A
C2404      O2410   1.321       .  A
C2405      C2406   1.402       .  A
C2405      H2414   1.082   1_655  S
C2406      C2409   1.354       .  A
O2407      C2408   1.330       .  A
C2408      C2409   1.391       .  A
O2410      C2411   1.329       .  A
C2411      C2412   1.392       .  A
C2412      H2416   1.083       .  S
C2417      C2422   1.380       .  A
C2417      C2418   1.403       .  A
C2417      O2423   1.315       .  A
C2418      C2419   1.400       .  A
C2418      H2429   1.082       .  S
C2419      C2428   1.365       .  A
C2419      C2420   1.380       .  A
C2420      C2421   1.404       .  A
C2420      O2426   1.315       .  A
C2421      C2422   1.401       .  A
C2421      H2430   1.082       .  S
C2422      C2425   1.365       .  A
O2423      C2424   1.330       .  A
C2424      C2425   1.390       .  A
C2425      H2431   1.082       .  S
O2426      C2427   1.331       .  A
C2427      C2428   1.389       .  A
C2428      H2432   1.082       .  S
C2433      C2438   1.381       .  A
C2433      C2434   1.400   1_545  A
C2433      O2439   1.321       .  A
C2434      C2435   1.402       .  A
C2434      H2445   1.082       .  S
C2435      C2444   1.354       .  A
C2435      C2436   1.381       .  A
C2436      C2437   1.403   1_565  A
C2436      O2442   1.323       .  A
C2437      C2438   1.405       .  A
C2437      H2446   1.082       .  S
C2438      C2441   1.358       .  A
O2439      C2440   1.329       .  A
C2440      C2441   1.393       .  A
C2441      H2447   1.083       .  S
O2442      C2443   1.331       .  A
C2443      C2444   1.392       .  A
C2444      H2448   1.083       .  S
C2449      C2454   1.381       .  A
C2449      C2450   1.403       .  A
C2449      O2455   1.314       .  A
C2450      C2451   1.400       .  A
C2450      H2461   1.082       .  S
C2451      C2460   1.364       .  A
C2451      C2452   1.381       .  A
C2452      C2453   1.401       .  A
C2452      O2458   1.313       .  A
C2453      C2454   1.398       .  A
C2453      H2462   1.082       .  S
C2454      C2457   1.362       .  A
O2455      C2456   1.330       .  A
C2456      C2457   1.388       .  A
C2457      H2463   1.082       .  S
O2458      C2459   1.329       .  A
C2459      C2460   1.390       .  A
C2460      H2464   1.082       .  S
C2465      C2470   1.380       .  A
C2465      C2466   1.404       .  A
C2465      O2471   1.315       .  A
C2466      C2467   1.401       .  A
C2466      H2477   1.082   1_655  S
C2467      C2476   1.366       .  A
C2467      C2468   1.380       .  A
C2468      C2469   1.402       .  A
C2468      O2474   1.314       .  A
C2469      C2470   1.399       .  A
C2469      H2478   1.082       .  S
C2470      C2473   1.364       .  A
O2471      C2472   1.331       .  A
C2472      C2473   1.389       .  A
C2473      H2479   1.082       .  S
O2474      C2475   1.330       .  A
C2475      C2476   1.390       .  A
C2476      H2480   1.082       .  S
C2481      C2486   1.381       .  A
C2481      C2482   1.402       .  A
C2481      O2487   1.322       .  A
C2482      C2483   1.403       .  A
C2482      H2493   1.082       .  S
C2483      C2492   1.357       .  A
C2483      C2484   1.381       .  A
C2484      C2485   1.403       .  A
C2484      O2490   1.322       .  A
C2485      C2486   1.404       .  A
C2485      H2494   1.082       .  S
C2486      C2489   1.358       .  A
O2487      C2488   1.330       .  A
C2488      C2489   1.392       .  A
C2489      H2495   1.083       .  S
O2490      C2491   1.331       .  A
C2491      C2492   1.391       .  A
C2492      H2496   1.083       .  S
C2497      C2502   1.380       .  A
C2497      C2498   1.404       .  A
C2497      O2503   1.315       .  A
C2498      C2499   1.401       .  A
C2498      H2509   1.082       .  S
C2499      C2508   1.366       .  A
C2499      C2500   1.380       .  A
C2500      C2501   1.403       .  A
C2500      O2506   1.314       .  A
C2501      C2502   1.400       .  A
C2501      H2510   1.082       .  S
C2502      C2505   1.364       .  A
O2503      C2504   1.331       .  A
C2504      C2505   1.389       .  A
C2505      H2511   1.082       .  S
O2506      C2507   1.330       .  A
C2507      C2508   1.390       .  A
C2508      H2512   1.082       .  S
C2513      C2518   1.381       .  A
C2513      C2514   1.402       .  A
C2513      O2519   1.322       .  A
C2514      C2515   1.404       .  A
C2514      H2525   1.082       .  S
C2515      C2524   1.356       .  A
C2515      C2516   1.381       .  A
C2516      C2517   1.402       .  A
C2516      O2522   1.322       .  A
C2517      C2518   1.404       .  A
C2517      H2526   1.082       .  S
C2518      C2521   1.356       .  A
O2519      C2520   1.330       .  A
C2520      C2521   1.393       .  A
C2521      H2527   1.083       .  S
O2522      C2523   1.330       .  A
C2523      C2524   1.393       .  A
C2524      H2528   1.083       .  S
C2529      C2534   1.381       .  A
C2529      C2530   1.401       .  A
C2529      O2535   1.321       .  A
C2530      C2531   1.402       .  A
C2530      H2541   1.082       .  S
C2531      C2540   1.355       .  A
C2531      C2532   1.381       .  A
C2532      C2533   1.402       .  A
C2532      O2538   1.322       .  A
C2533      C2534   1.404       .  A
C2533      H2542   1.082       .  S
C2534      C2537   1.357       .  A
O2535      C2536   1.329       .  A
C2536      C2537   1.392       .  A
C2537      H2543   1.083       .  S
O2538      C2539   1.330       .  A
C2539      C2540   1.391       .  A
C2540      H2544   1.083       .  S
C2545      C2550   1.380       .  A
C2545      C2546   1.403       .  A
C2545      O2551   1.313       .  A
C2546      C2547   1.399       .  A
C2546      H2557   1.082       .  S
C2547      C2556   1.364       .  A
C2547      C2548   1.380       .  A
C2548      C2549   1.402       .  A
C2548      O2554   1.313       .  A
C2549      C2550   1.399       .  A
C2549      H2558   1.082       .  S
C2550      C2553   1.364       .  A
O2551      C2552   1.330       .  A
C2552      C2553   1.389       .  A
C2553      H2559   1.082       .  S
O2554      C2555   1.330       .  A
C2555      C2556   1.389       .  A
C2556      H2560   1.082       .  S
C2561      C2566   1.381       .  A
C2561      C2562   1.401       .  A
C2561      O2567   1.321       .  A
C2562      C2563   1.403       .  A
C2562      H2573   1.082       .  S
C2563      C2572   1.356       .  A
C2563      C2564   1.381       .  A
C2564      C2565   1.402       .  A
C2564      O2570   1.322       .  A
C2565      C2566   1.403       .  A
C2565      H2574   1.082       .  S
C2566      C2569   1.356       .  A
O2567      C2568   1.330       .  A
C2568      C2569   1.391       .  A
C2569      H2575   1.083       .  S
O2570      C2571   1.330       .  A
C2571      C2572   1.392       .  A
C2572      H2576   1.083       .  S
C2577      C2582   1.381       .  A
C2577      C2578   1.402       .  A
C2577      O2583   1.323       .  A
C2578      C2579   1.404       .  A
C2578      H2589   1.082       .  S
C2579      C2588   1.357       .  A
C2579      C2580   1.381       .  A
C2580      C2581   1.402       .  A
C2580      O2586   1.322       .  A
C2581      C2582   1.404       .  A
C2581      H2590   1.082   1_556  S
C2582      C2585   1.357       .  A
O2583      C2584   1.331       .  A
C2584      C2585   1.393       .  A
C2585      H2591   1.083   1_556  S
O2586      C2587   1.330       .  A
C2587      C2588   1.393       .  A
C2588      H2592   1.083       .  S
C2593      C2598   1.380       .  A
C2593      C2594   1.403       .  A
C2593      O2599   1.313       .  A
C2594      C2595   1.400       .  A
C2594      H2605   1.082       .  S
C2595      C2604   1.364       .  A
C2595      C2596   1.380       .  A
C2596      C2597   1.404       .  A
C2596      O2602   1.315       .  A
C2597      C2598   1.401       .  A
C2597      H2606   1.082       .  S
C2598      C2601   1.366       .  A
O2599      C2600   1.330       .  A
C2600      C2601   1.390       .  A
C2601      H2607   1.082       .  S
O2602      C2603   1.331       .  A
C2603      C2604   1.389       .  A
C2604      H2608   1.082       .  S
C2609      C2614   1.381       .  A
C2609      C2610   1.402       .  A
C2609      O2615   1.323       .  A
C2610      H2621   1.082       .  S
C2611      C2620   1.357       .  A
C2611      C2612   1.381       .  A
C2612      C2613   1.403       .  A
C2612      O2618   1.324       .  A
C2613      H2622   1.082       .  S
C2614      C2617   1.358       .  A
O2615      C2616   1.331       .  A
C2616      C2617   1.393       .  A
C2617      H2623   1.083       .  S
O2618      C2619   1.331       .  A
C2619      C2620   1.393       .  A
C2620      H2624   1.083   1_655  S
C2625      C2630   1.381       .  A
C2625      C2626   1.400       .  A
C2625      O2631   1.320       .  A
C2626      C2627   1.401       .  A
C2626      H2637   1.082       .  S
C2627      C2636   1.355       .  A
C2627      C2628   1.381       .  A
C2628      C2629   1.402       .  A
C2628      O2634   1.321       .  A
C2629      C2630   1.403       .  A
C2629      H2638   1.082       .  S
C2630      C2633   1.357       .  A
O2631      C2632   1.329       .  A
C2632      C2633   1.392       .  A
C2633      H2639   1.083       .  S
O2634      C2635   1.330       .  A
C2635      C2636   1.391       .  A
C2636      H2640   1.083       .  S
C2641      C2646   1.380       .  A
C2641      C2642   1.403       .  A
C2641      O2647   1.313       .  A
C2642      C2643   1.400       .  A
C2643      C2652   1.365       .  A
C2643      C2644   1.380       .  A
C2644      C2645   1.403       .  A
C2644      O2650   1.313       .  A
C2645      C2646   1.399       .  A
C2645      H2654   1.082       .  S
C2646      C2649   1.364       .  A
O2647      C2648   1.330       .  A
C2648      C2649   1.389       .  A
C2649      H2655   1.082       .  S
O2650      C2651   1.330       .  A
C2651      C2652   1.389       .  A
C2652      H2656   1.082       .  S
C2657      C2662   1.380       .  A
C2657      O2663   1.313       .  A
C2658      C2659   1.400       .  A
C2658      H2669   1.082       .  S
C2659      C2668   1.365       .  A
C2659      C2660   1.380       .  A
C2660      O2666   1.315       .  A
C2661      C2662   1.402       .  A
C2661      H2670   1.082       .  S
C2662      C2665   1.367       .  A
O2663      C2664   1.331       .  A
C2664      C2665   1.391       .  A
C2665      H2671   1.082       .  S
O2666      C2667   1.332       .  A
C2667      C2668   1.390       .  A
C2668      H2672   1.082       .  S
C2673      C2678   1.381       .  A
C2673      C2674   1.402       .  A
C2673      O2679   1.322       .  A
C2674      C2675   1.404       .  A
C2674      H2685   1.082       .  S
C2675      C2684   1.357       .  A
C2675      C2676   1.381       .  A
C2676      C2677   1.402       .  A
C2676      O2682   1.322       .  A
C2677      C2678   1.403       .  A
C2677      H2686   1.082       .  S
C2678      C2681   1.357       .  A
O2679      C2680   1.330       .  A
C2680      C2681   1.392       .  A
C2681      H2687   1.083       .  S
O2682      C2683   1.330       .  A
C2683      C2684   1.392       .  A
C2684      H2688   1.083       .  S
C2689      C2694   1.380       .  A
C2689      C2690   1.403       .  A
C2689      O2695   1.314       .  A
C2690      C2691   1.400       .  A
C2690      H2701   1.082       .  S
C2691      C2700   1.364       .  A
C2691      C2692   1.380       .  A
C2692      C2693   1.404       .  A
C2692      O2698   1.314       .  A
C2693      C2694   1.400       .  A
C2693      H2702   1.082       .  S
C2694      C2697   1.365       .  A
O2695      C2696   1.330       .  A
C2696      C2697   1.390       .  A
C2697      H2703   1.082       .  S
O2698      C2699   1.331       .  A
C2699      C2700   1.389       .  A
C2700      H2704   1.082       .  S
C2705      C2710   1.381       .  A
C2705      C2706   1.400       .  A
C2705      O2711   1.322       .  A
C2706      C2707   1.402       .  A
C2706      H2717   1.082       .  S
C2707      C2716   1.354       .  A
C2707      C2708   1.381       .  A
C2708      C2709   1.403       .  A
C2708      O2714   1.323       .  A
C2709      C2710   1.405       .  A
C2709      H2718   1.082       .  S
C2710      C2713   1.357       .  A
O2711      C2712   1.330       .  A
C2712      C2713   1.393       .  A
C2713      H2719   1.083       .  S
O2714      C2715   1.331       .  A
C2715      C2716   1.392       .  A
C2716      H2720   1.083       .  S
C2721      C2726   1.381       .  A
C2721      C2722   1.402       .  A
C2721      O2727   1.323       .  A
C2722      C2723   1.404       .  A
C2722      H2733   1.082       .  S
C2723      C2732   1.357       .  A
C2723      C2724   1.381       .  A
C2724      C2725   1.402       .  A
C2724      O2730   1.322       .  A
C2725      C2726   1.403       .  A
C2725      H2734   1.082       .  S
C2726      C2729   1.356       .  A
O2727      C2728   1.330       .  A
C2728      C2729   1.392       .  A
C2729      H2735   1.083       .  S
O2730      C2731   1.330       .  A
C2731      C2732   1.392       .  A
C2732      H2736   1.083       .  S
C2737      C2742   1.382       .  A
C2737      C2738   1.399       .  A
C2737      O2743   1.319       .  A
C2738      C2739   1.400       .  A
C2738      H2749   1.083       .  S
C2739      C2748   1.353       .  A
C2739      C2740   1.382       .  A
C2740      C2741   1.400       .  A
C2740      O2746   1.320       .  A
C2741      C2742   1.402       .  A
C2741      H2750   1.083       .  S
C2742      C2745   1.354       .  A
O2743      C2744   1.328       .  A
C2744      C2745   1.391       .  A
C2745      H2751   1.083       .  S
O2746      C2747   1.329       .  A
C2747      C2748   1.390       .  A
C2748      H2752   1.083       .  S
C2753      C2758   1.381       .  A
C2753      C2754   1.401       .  A
C2753      O2759   1.322       .  A
C2754      C2755   1.403       .  A
C2754      H2765   1.082       .  S
C2755      C2764   1.356       .  A
C2755      C2756   1.381       .  A
C2756      C2757   1.402       .  A
C2756      O2762   1.322       .  A
C2757      C2758   1.404       .  A
C2757      H2766   1.082       .  S
C2758      C2761   1.358       .  A
O2759      C2760   1.330       .  A
C2760      C2761   1.392       .  A
C2761      H2767   1.083       .  S
O2762      C2763   1.330       .  A
C2763      C2764   1.391       .  A
C2769      C2774   1.380       .  A
C2769      O2775   1.316       .  A
C2770      C2771   1.403       .  A
C2770      H2781   1.082       .  S
C2771      C2780   1.368       .  A
C2771      C2772   1.380       .  A
C2772      O2778   1.314       .  A
C2773      C2774   1.401       .  A
C2773      H2782   1.082       .  S
C2774      C2777   1.366       .  A
O2775      C2776   1.332       .  A
C2776      C2777   1.390       .  A
C2777      H2783   1.082       .  S
O2778      C2779   1.331       .  A
C2779      C2780   1.392       .  A
C2780      H2784   1.082       .  S
C2785      C2790   1.380       .  A
C2785      C2786   1.402       .  A
C2785      O2791   1.313       .  A
C2786      C2787   1.399       .  A
C2786      H2797   1.082       .  S
C2787      C2796   1.364       .  A
C2787      C2788   1.380       .  A
C2788      C2789   1.403       .  A
C2788      O2794   1.314       .  A
C2789      C2790   1.400       .  A
C2789      H2798   1.082       .  S
C2790      C2793   1.365       .  A
O2791      C2792   1.330       .  A
C2792      C2793   1.389       .  A
C2793      H2799   1.082       .  S
O2794      C2795   1.331       .  A
C2795      C2796   1.389       .  A
C2796      H2800   1.082       .  S
C2801      C2806   1.381       .  A
C2801      C2802   1.403   1_565  A
C2801      O2807   1.323       .  A
C2802      C2803   1.404       .  A
C2802      H2813   1.082       .  S
C2803      C2812   1.357       .  A
C2803      C2804   1.381       .  A
C2804      C2805   1.401   1_545  A
C2804      O2810   1.321       .  A
C2805      C2806   1.402       .  A
C2805      H2814   1.082       .  S
C2806      C2809   1.355       .  A
O2807      C2808   1.331       .  A
C2808      C2809   1.392       .  A
C2809      H2815   1.083       .  S
O2810      C2811   1.330       .  A
C2811      C2812   1.393       .  A
C2812      H2816   1.083       .  S
C2817      C2822   1.381       .  A
C2817      C2818   1.402       .  A
C2817      O2823   1.313       .  A
C2818      C2819   1.399       .  A
C2818      H2829   1.082       .  S
C2819      C2828   1.363       .  A
C2819      C2820   1.380       .  A
C2820      C2821   1.403       .  A
C2820      O2826   1.314       .  A
C2821      C2822   1.400       .  A
C2821      H2830   1.082       .  S
C2822      C2825   1.365       .  A
O2823      C2824   1.329       .  A
C2824      C2825   1.390       .  A
C2825      H2831   1.082       .  S
O2826      C2827   1.330       .  A
C2827      C2828   1.389       .  A
C2828      H2832   1.082       .  S
C2833      C2838   1.380       .  A
C2833      C2834   1.403       .  A
C2833      O2839   1.314       .  A
C2834      C2835   1.399       .  A
C2834      H2845   1.082       .  S
C2835      C2844   1.364       .  A
C2835      C2836   1.380       .  A
C2836      C2837   1.405       .  A
C2836      O2842   1.316       .  A
C2837      C2838   1.402       .  A
C2837      H2846   1.082       .  S
C2838      C2841   1.368       .  A
O2839      C2840   1.330       .  A
C2840      C2841   1.391       .  A
C2841      H2847   1.082       .  S
O2842      C2843   1.332       .  A
C2843      C2844   1.389       .  A
C2844      H2848   1.082       .  S
C2849      C2854   1.381       .  A
C2849      C2850   1.404       .  A
C2849      O2855   1.324       .  A
C2850      C2851   1.405       .  A
C2850      H2861   1.082       .  S
C2851      C2860   1.358       .  A
C2851      C2852   1.381       .  A
C2852      C2853   1.402       .  A
C2852      O2858   1.323       .  A
C2853      C2854   1.404       .  A
C2853      H2862   1.082       .  S
C2854      C2857   1.356       .  A
O2855      C2856   1.331       .  A
C2856      C2857   1.393       .  A
C2857      H2863   1.083       .  S
O2858      C2859   1.331       .  A
C2859      C2860   1.393       .  A
C2860      H2864   1.083       .  S
C2865      C2870   1.380       .  A
C2865      C2866   1.406       .  A
C2865      O2871   1.316       .  A
C2866      C2867   1.402       .  A
C2866      H2877   1.082       .  S
C2867      C2876   1.368       .  A
C2867      C2868   1.380       .  A
C2868      C2869   1.405       .  A
C2868      O2874   1.316       .  A
C2869      C2870   1.402       .  A
C2869      H2878   1.082       .  S
C2870      C2873   1.368       .  A
O2871      C2872   1.332       .  A
C2872      C2873   1.391       .  A
C2873      H2879   1.082       .  S
O2874      C2875   1.332       .  A
C2875      C2876   1.391       .  A
C2876      H2880   1.082       .  S
C2881      C2886   1.381       .  A
C2881      C2882   1.401       .  A
C2881      O2887   1.321       .  A
C2882      C2883   1.402       .  A
C2883      C2884   1.381       .  A
C2884      C2885   1.401       .  A
C2884      O2890   1.321       .  A
C2885      C2886   1.403       .  A
C2885      H2894   1.082       .  S
C2886      C2889   1.355       .  A
O2887      C2888   1.329       .  A
C2888      C2889   1.391       .  A
C2889      H2895   1.083       .  S
O2890      C2891   1.329       .  A
C2892      H2896   1.083   1_455  S
C2897      C2902   1.381   1_455  A
C2897      C2898   1.403   1_565  A
C2898      C2899   1.405   1_455  A
C2898      H2909   1.082       .  S
C2899      C2908   1.357       .  A
C2899      C2900   1.381       .  A
C2900      C2901   1.402   1_545  A
C2900      O2906   1.323       .  A
C2901      C2902   1.404       .  A
C2901      H2910   1.082       .  S
C2902      C2905   1.357   1_655  A
O2903      C2904   1.331       .  A
C2905      H2911   1.083   1_455  S
O2906      C2907   1.331       .  A
C2907      C2908   1.393       .  A
C2908      H2912   1.083   1_655  S
C2913      C2918   1.381       .  A
C2913      C2914   1.403       .  A
C2913      O2919   1.323       .  A
C2914      C2915   1.404       .  A
C2914      H2925   1.082       .  S
C2915      C2924   1.358       .  A
C2915      C2916   1.381       .  A
C2916      C2917   1.400       .  A
C2916      O2922   1.320       .  A
C2917      C2918   1.401       .  A
C2917      H2926   1.082       .  S
C2918      C2921   1.355       .  A
O2919      C2920   1.331       .  A
C2920      C2921   1.391       .  A
C2921      H2927   1.083       .  S
O2922      C2923   1.329       .  A
C2923      C2924   1.392       .  A
C2924      H2928   1.083       .  S
C2929      C2934   1.381       .  A
C2929      C2930   1.402       .  A
C2929      O2935   1.322       .  A
C2930      C2931   1.403       .  A
C2930      H2941   1.082       .  S
C2931      C2940   1.358       .  A
C2931      C2932   1.381       .  A
C2932      C2933   1.402       .  A
C2932      O2938   1.321       .  A
C2933      C2934   1.403       .  A
C2933      H2942   1.082       .  S
C2934      C2937   1.357       .  A
O2935      C2936   1.330       .  A
C2936      C2937   1.392       .  A
C2937      H2943   1.083       .  S
O2938      C2939   1.330       .  A
C2939      C2940   1.392       .  A
C2940      H2944   1.083       .  S
