geometry optimzed in LAMMPS
_audit_creation_date              2020-12-01 
_audit_creation_method            'lammps2cif' 
_symmetry_space_group_name_H-M    'P1' 
_symmetry_Int_Tables_number       1 
_symmetry_cell_setting            triclinic 
loop_ 
_symmetry_equiv_pos_as_xyz 
  x,y,z 
_cell_length_a                    78.09942878 
_cell_length_b                    77.88757965153613 
_cell_length_c                    78.05042466134097 
_cell_angle_alpha                 89.791771256707 
_cell_angle_beta                  90.28466560213002 
_cell_angle_gamma                 89.99654588180776 
loop_ 
_atom_site_label 
_atom_site_type_symbol 
_atom_site_fract_x 
_atom_site_fract_y 
_atom_site_fract_z 
_atom_site_charge 
N1          N  0.07335951  0.01570625  0.22998409    -0.25800
N2          N  0.06092838  0.02418057  0.22204185    -0.33700
C3          C  0.06188663  0.04095257  0.22573985     0.02500
C4          C  0.07555942  0.04355028  0.23653483     0.08500
C5          C  0.08267673  0.02728868  0.23906498    -0.04600
H6          H  0.05348621  0.05069144  0.22042020     0.09200
H7          H  0.09392359  0.02419476  0.24662864     0.10400
Cu8        Cu  0.04417685  0.01402626  0.20446614     0.44200
Cu9        Cu  0.07647921  0.98864453  0.22672551     0.42000
Cu10       Cu  0.05021825  0.97150936  0.19095570     0.43900
N11         N  0.03210619  0.00442164  0.18315099    -0.33200
N12         N  0.03456932  0.98858707  0.17771730    -0.27500
C13         C  0.02562724  0.98629543  0.16311158    -0.03600
C14         C  0.01733117  0.00151693  0.15929757     0.08600
C15         C  0.02162266  0.01272668  0.17223030     0.02400
H16         H  0.02517192  0.97447913  0.15589746     0.10100
H17         H  0.01752688  0.02589639  0.17359868     0.09200
N18         N  0.06557642  0.95646148  0.20681711    -0.34700
N19         N  0.07503157  0.96213804  0.21978101    -0.26900
C20         C  0.08264840  0.94838112  0.22732130    -0.02100
C21         C  0.07771918  0.93356192  0.21865259     0.06500
C22         C  0.06693580  0.93926023  0.20580315     0.04600
H23         H  0.09098420  0.94906995  0.23842947     0.09700
H24         H  0.06028753  0.93141840  0.19647819     0.08500
N25         N  0.05695394  0.20752518  0.26258298    -0.25800
N26         N  0.04518404  0.19909781  0.27145810    -0.33700
C27         C  0.04838228  0.18214324  0.27082705     0.02500
C28         C  0.06282426  0.17950450  0.26113517     0.08500
C29         C  0.06799019  0.19584418  0.25604579    -0.04600
H30         H  0.04063098  0.17239566  0.27696054     0.09200
H31         H  0.07890270  0.19898750  0.24812548     0.10400
Cu32       Cu  0.02480507  0.21014345  0.28431486     0.44200
Cu33       Cu  0.05697581  0.23478225  0.25993385     0.42000
Cu34       Cu  0.01937294  0.25477742  0.27929294     0.43900
N35         N  0.00555710  0.22353981  0.29664722    -0.33200
N36         N  0.00344167  0.24023819  0.29455886    -0.27500
C37         C  0.99104243  0.24573525  0.30510481    -0.03600
C38         C  0.98507793  0.23175940  0.31418667     0.08600
C39         C  0.99452757  0.21788692  0.30859873     0.02400
H40         H  0.98732710  0.25900887  0.30667664     0.10100
H41         H  0.99403013  0.20486835  0.31343625     0.09200
N42         N  0.03834528  0.26842531  0.26695176    -0.34700
N43         N  0.05233376  0.26176078  0.26011293    -0.26900
C44         C  0.06213826  0.27490303  0.25429001    -0.02100
C45         C  0.05377837  0.29032137  0.25770410     0.06500
C46         C  0.03882897  0.28562448  0.26569217     0.04600
H47         H  0.07450585  0.27338536  0.24827529     0.09700
H48         H  0.02908766  0.29414855  0.27063816     0.08500
N49         N  0.08659339  0.76422846  0.22873856    -0.25800
N50         N  0.08246392  0.76973745  0.21317807    -0.33700
C51         C  0.08350765  0.78689398  0.21233407     0.02500
C52         C  0.08851767  0.79301303  0.22801118     0.08500
C53         C  0.09040279  0.77833470  0.23828332    -0.04600
H54         H  0.08031453  0.79445518  0.20107397     0.09200
H55         H  0.09396665  0.77800236  0.25171688     0.10400
Cu56       Cu  0.07360364  0.75513381  0.19333092     0.44200
Cu57       Cu  0.08579430  0.73718805  0.23505156     0.42000
Cu58       Cu  0.06282744  0.71304360  0.20105291     0.43900
N59         N  0.06096812  0.74092403  0.17532409    -0.33200
N60         N  0.05649425  0.72488008  0.17829327    -0.27500
C61         C  0.04879322  0.71852577  0.16425102    -0.03600
C62         C  0.04834413  0.73142104  0.15207544     0.08600
C63         C  0.05622035  0.74540840  0.15938700     0.02400
H64         H  0.04442924  0.70542522  0.16283929     0.10100
H65         H  0.05876959  0.75772525  0.15346092     0.09200
N66         N  0.07340781  0.70189229  0.22256350    -0.34700
N67         N  0.08216142  0.70966002  0.23490999    -0.26900
C68         C  0.08793229  0.69721446  0.24580527    -0.02100
C69         C  0.08241041  0.68120279  0.23980933     0.06500
C70         C  0.07332046  0.68486029  0.22517048     0.04600
H71         H  0.09575107  0.69956495  0.25702774     0.09700
H72         H  0.06736089  0.67568187  0.21663476     0.08500
N73         N  0.08575001  0.45702536  0.24830677    -0.25800
N74         N  0.10026249  0.44823160  0.24765873    -0.33700
C75         C  0.09704741  0.43132871  0.24803184     0.02500
C76         C  0.07969467  0.42889198  0.24894452     0.08500
C77         C  0.07274199  0.44543841  0.24910660    -0.04600
H78         H  0.10680395  0.42145361  0.24785154     0.09200
H79         H  0.05931101  0.44875856  0.24987845     0.10400
Cu80       Cu  0.12459143  0.45810968  0.24716660     0.44200
Cu81       Cu  0.08554540  0.48466236  0.24833622     0.42000
Cu82       Cu  0.12962137  0.50211722  0.24958303     0.43900
N83         N  0.14841089  0.46891045  0.24957655    -0.33200
N84         N  0.15036449  0.48568640  0.25061718    -0.27500
C85         C  0.16687858  0.48919819  0.25400084    -0.03600
C86         C  0.17561493  0.47380899  0.25505926     0.08600
C87         C  0.16357030  0.46116777  0.25230052     0.02400
H88         H  0.17189532  0.50187522  0.25657169     0.10100
H89         H  0.16541426  0.44744103  0.25330112     0.09200
N90         N  0.10782090  0.51715019  0.24889980    -0.34700
N91         N  0.09177028  0.51159489  0.24843669    -0.26900
C92         C  0.08140588  0.52562919  0.24817939    -0.02100
C93         C  0.09156033  0.54040988  0.24851926     0.06500
C94         C  0.10810233  0.53439864  0.24896805     0.04600
H95         H  0.06755460  0.52514657  0.24783311     0.09700
H96         H  0.11967124  0.54206158  0.24937735     0.08500
N97         N  0.81722991  0.00626058  0.10410590    -0.25800
N98         N  0.83034369  0.01378127  0.11187348    -0.33700
C99         C  0.82801649  0.01370243  0.12888767     0.02500
C100        C  0.81273737  0.00579576  0.13243701     0.08500
C101        C  0.80608454  0.00115763  0.11644983    -0.04600
H102        H  0.83713578  0.01869898  0.13810235     0.09200
H103        H  0.79422088  0.99438944  0.11403116     0.10400
Cu104      Cu  0.85241137  0.02236345  0.10044129     0.44200
Cu105      Cu  0.81650478  0.00333496  0.07676981     0.42000
Cu106      Cu  0.85924792  0.01159937  0.05813402     0.43900
N107        N  0.87620176  0.02458354  0.08951417    -0.33200
N108        N  0.87900212  0.01993738  0.07354818    -0.27500
C109        C  0.89594191  0.02023741  0.07053165    -0.03600
C110        C  0.90404696  0.02542021  0.08539897     0.08600
C111        C  0.89122852  0.02797360  0.09721273     0.02400
H112        H  0.90190506  0.01593129  0.05883949     0.10100
H113        H  0.89277206  0.03075176  0.11069025     0.09200
N114        N  0.83774044  0.00580272  0.04392216    -0.34700
N115        N  0.82209962  0.00301939  0.04986011    -0.26900
C116        C  0.81158848  0.00067068  0.03613679    -0.02100
C117        C  0.82125644  0.00205398  0.02118634     0.06500
C118        C  0.83763796  0.00529092  0.02673825     0.04600
H119        H  0.79794256  0.99839478  0.03694075     0.09700
H120        H  0.84876626  0.00750993  0.01880467     0.08500
N121        N  0.79659732  0.02168869  0.35301186    -0.25800
N122        N  0.78331878  0.02954188  0.35998105    -0.33700
C123        C  0.78558223  0.03067055  0.37701295     0.02500
C124        C  0.80099903  0.02321543  0.38127811     0.08500
C125        C  0.80773996  0.01758877  0.36577403    -0.04600
H126        H  0.77606595  0.03549137  0.38581491     0.09200
H127        H  0.81942391  0.01033393  0.36403128     0.10400
Cu128      Cu  0.76044395  0.03444978  0.34762312     0.44200
Cu129      Cu  0.79709127  0.01566285  0.32641212     0.42000
Cu130      Cu  0.75344307  0.01184735  0.30935072     0.43900
N131        N  0.73628895  0.02753988  0.33949633    -0.33200
N132        N  0.73368763  0.01794704  0.32582607    -0.27500
C133        C  0.71786719  0.01113164  0.32662061    -0.03600
C134        C  0.71020640  0.01685274  0.34148676     0.08600
C135        C  0.72223640  0.02719072  0.34931305     0.02400
H136        H  0.71315850  0.00120356  0.31817615     0.10100
H137        H  0.72177954  0.03194264  0.36230510     0.09200
N138        N  0.77521963  0.00951831  0.29449841    -0.34700
N139        N  0.79118102  0.01113875  0.30011974    -0.26900
C140        C  0.80175873  0.00993237  0.28644589    -0.02100
C141        C  0.79186990  0.00741661  0.27176032     0.06500
C142        C  0.77521254  0.00723534  0.27743532     0.04600
H143        H  0.81556899  0.01108599  0.28708794     0.09700
H144        H  0.76376880  0.00593935  0.26963036     0.08500
N145        N  0.80058224  0.01325042  0.54908807    -0.25800
N146        N  0.78552752  0.01790392  0.54268502    -0.33700
C147        C  0.78609856  0.01778142  0.52549906     0.02500
C148        C  0.80221496  0.01286912  0.52051164     0.08500
C149        C  0.81119004  0.01005887  0.53575303    -0.04600
H150        H  0.77558745  0.02157963  0.51719445     0.09200
H151        H  0.82450889  0.00635428  0.53703309     0.10400
Cu152      Cu  0.76489937  0.02656521  0.55657765     0.44200
Cu153      Cu  0.80542750  0.01268598  0.57602884     0.42000
Cu154      Cu  0.77497002  0.04058156  0.59787454     0.43900
N155        N  0.74767207  0.04005267  0.57122068    -0.33200
N156        N  0.75179100  0.04599299  0.58650629    -0.27500
C157        C  0.73832093  0.05438253  0.59308256    -0.03600
C158        C  0.72520383  0.05368161  0.58122617     0.08600
C159        C  0.73145455  0.04454720  0.56750879     0.02400
H160        H  0.73804356  0.06026371  0.60560208     0.10100
H161        H  0.72477159  0.04137902  0.55577209     0.09200
N162        N  0.79391709  0.02705647  0.61031822    -0.34700
N163        N  0.80456728  0.01599791  0.60314868    -0.26900
C164        C  0.81297947  0.00760899  0.61593288    -0.02100
C165        C  0.80722581  0.01388040  0.63160216     0.06500
C166        C  0.79524941  0.02611773  0.62743233     0.04600
H167        H  0.82211362  0.99733331  0.61400492     0.09700
H168        H  0.78727911  0.03321722  0.63625927     0.08500
N169        N  0.80582360  0.01821332  0.79873067    -0.25800
N170        N  0.80237497  0.03312700  0.79123354    -0.33700
C171        C  0.80280118  0.03136913  0.77414615     0.02500
C172        C  0.80668827  0.01461911  0.77035495     0.08500
C173        C  0.80854771  0.00650234  0.78620325    -0.04600
H174        H  0.80038392  0.04168363  0.76506674     0.09200
H175        H  0.81164140  0.99310494  0.78844215     0.10400
Cu176      Cu  0.79679704  0.05586519  0.80340808     0.44200
Cu177      Cu  0.80646335  0.01525071  0.82595248     0.42000
Cu178      Cu  0.79276096  0.05459381  0.84791229     0.43900
N179        N  0.79026046  0.07735003  0.81720974    -0.33200
N180        N  0.78848303  0.07677787  0.83400513    -0.27500
C181        C  0.78441005  0.09250589  0.83970531    -0.03600
C182        C  0.78360140  0.10339057  0.82574255     0.08600
C183        C  0.78736748  0.09346660  0.81165446     0.02400
H184        H  0.78244590  0.09578984  0.85300469     0.10100
H185        H  0.78811604  0.09762007  0.79843974     0.09200
N186        N  0.80021827  0.03243983  0.86049077    -0.34700
N187        N  0.80552540  0.01808442  0.85315149    -0.26900
C188        C  0.81008004  0.00694232  0.86579041    -0.02100
C189        C  0.80744027  0.01482781  0.88157293     0.06500
C190        C  0.80120801  0.03087215  0.87761025     0.04600
H191        H  0.81509127  0.99417375  0.86367441     0.09700
H192        H  0.79786256  0.04089878  0.88656226     0.08500
N193        N  0.54702507  0.07637719  0.68110036    -0.25800
N194        N  0.55395990  0.06844111  0.66785825    -0.33700
C195        C  0.55390308  0.05141666  0.67050922     0.02500
C196        C  0.54656686  0.04811943  0.68612740     0.08500
C197        C  0.54228317  0.06420824  0.69263407    -0.04600
H198        H  0.55910469  0.04207404  0.66169452     0.09200
H199        H  0.53637044  0.06685212  0.70486114     0.10400
Cu200      Cu  0.56444588  0.08016276  0.64673646     0.44200
Cu201      Cu  0.54535068  0.10369247  0.68205597     0.42000
Cu202      Cu  0.56678865  0.12476815  0.64502879     0.43900
N203        N  0.57808472  0.09269265  0.62804830    -0.33200
N204        N  0.57938185  0.10956641  0.62750566    -0.27500
C205        C  0.59148256  0.11394373  0.61607088    -0.03600
C206        C  0.59789883  0.09899949  0.60908424     0.08600
C207        C  0.58921016  0.08578968  0.61698840     0.02400
H208        H  0.59630934  0.12680831  0.61420943     0.10100
H209        H  0.59198640  0.07223512  0.61609597     0.09200
N210        N  0.55461283  0.13774116  0.66455823    -0.34700
N211        N  0.54694518  0.13075289  0.67801369    -0.26900
C212        C  0.54118466  0.14367715  0.68805877    -0.02100
C213        C  0.54550990  0.15926862  0.68044609     0.06500
C214        C  0.55394876  0.15493810  0.66566125     0.04600
H215        H  0.53458623  0.14187765  0.70007708     0.09700
H216        H  0.55950870  0.16366880  0.65644111     0.08500
N217        N  0.55435185  0.82643801  0.71037995    -0.25800
N218        N  0.56138314  0.81886666  0.72389741    -0.33700
C219        C  0.56114974  0.80175909  0.72195965     0.02500
C220        C  0.55367039  0.79798446  0.70646861     0.08500
C221        C  0.54944636  0.81391417  0.69931581    -0.04600
H222        H  0.56565918  0.79267022  0.73148001     0.09200
H223        H  0.54306902  0.81617547  0.68718315     0.10400
Cu224      Cu  0.56871815  0.83099925  0.74602640     0.44200
Cu225      Cu  0.55178100  0.85377834  0.70927914     0.42000
Cu226      Cu  0.55739168  0.87362824  0.75235097     0.43900
N227        N  0.56627995  0.84111737  0.77009800    -0.33200
N228        N  0.56111352  0.85700569  0.77275150    -0.27500
C229        C  0.55699873  0.85875918  0.78940507    -0.03600
C230        C  0.55982007  0.84312491  0.79739665     0.08600
C231        C  0.56566620  0.83227173  0.78484282     0.02400
H232        H  0.55122726  0.87007314  0.79491639     0.10100
H233        H  0.56777532  0.81858465  0.78597609     0.09200
N234        N  0.55415435  0.88731413  0.72977881    -0.34700
N235        N  0.55193337  0.88080161  0.71423602    -0.26900
C236        C  0.55005260  0.89410759  0.70310395    -0.02100
C237        C  0.55119772  0.90943720  0.71219917     0.06500
C238        C  0.55380555  0.90454622  0.72894994     0.04600
H239        H  0.54795857  0.89274635  0.68946694     0.09700
H240        H  0.55522796  0.91293551  0.73988274     0.08500
N241        N  0.52285993  0.37953953  0.67601163    -0.25800
N242        N  0.51203453  0.38542240  0.66420778    -0.33700
C243        C  0.51262363  0.40267298  0.66387670     0.02500
C244        C  0.52430639  0.40815226  0.67592555     0.08500
C245        C  0.53060480  0.39320490  0.68345163    -0.04600
H246        H  0.50539259  0.41065467  0.65505696     0.09200
H247        H  0.54039202  0.39231746  0.69328324     0.10400
Cu248      Cu  0.49772952  0.37084347  0.64710034     0.44200
Cu249      Cu  0.52748532  0.35295998  0.68058418     0.42000
Cu250      Cu  0.51310794  0.32888985  0.64423114     0.43900
N251        N  0.48840306  0.35387286  0.62887380    -0.33200
N252        N  0.49509686  0.33838616  0.62751347    -0.27500
C253        C  0.48659255  0.32953309  0.61550547    -0.03600
C254        C  0.47392662  0.33994176  0.60891971     0.08600
C255        C  0.47527276  0.35533196  0.61765121     0.02400
H256        H  0.48878976  0.31615560  0.61256890     0.10100
H257        H  0.46696844  0.36638633  0.61649608     0.09200
N258        N  0.52505249  0.31766203  0.66486761    -0.34700
N259        N  0.52996253  0.32581588  0.67889445    -0.26900
C260        C  0.53569267  0.31389377  0.69027869    -0.02100
C261        C  0.53419175  0.29771914  0.68279918     0.06500
C262        C  0.52742697  0.30072212  0.66680362     0.04600
H263        H  0.54031013  0.31672609  0.70308175     0.09700
H264        H  0.52393926  0.29116562  0.65732059     0.08500
N265        N  0.54389395  0.62937504  0.69562259    -0.25800
N266        N  0.54001132  0.63461528  0.71124742    -0.33700
C267        C  0.54207050  0.65166928  0.71242638     0.02500
C268        C  0.54750307  0.65785717  0.69688542     0.08500
C269        C  0.54855917  0.64341417  0.68637794    -0.04600
H270        H  0.53884664  0.65917959  0.72360992     0.09200
H271        H  0.55183866  0.64324084  0.67292315     0.10400
Cu272      Cu  0.52834724  0.61999873  0.72973767     0.44200
Cu273      Cu  0.54086497  0.60304987  0.68847203     0.42000
Cu274      Cu  0.50794207  0.58288031  0.71546910     0.43900
N275        N  0.50883983  0.60875055  0.74324244    -0.33200
N276        N  0.50048290  0.59521960  0.73747394    -0.27500
C277        C  0.48704083  0.59206948  0.74771302    -0.03600
C278        C  0.48712072  0.60430729  0.76045830     0.08600
C279        C  0.50097350  0.61474468  0.75724744     0.02400
H280        H  0.47760245  0.58216577  0.74559771     0.10100
H281        H  0.50447395  0.62636547  0.76391213     0.09200
N282        N  0.52171592  0.56996627  0.69716534    -0.34700
N283        N  0.53422380  0.57640576  0.68769082    -0.26900
C284        C  0.54164422  0.56317399  0.67920806    -0.02100
C285        C  0.53324193  0.54800446  0.68367294     0.06500
C286        C  0.52078272  0.55291475  0.69498840     0.04600
H287        H  0.55265739  0.56439313  0.67093690     0.09700
H288        H  0.51216417  0.54454741  0.70191253     0.08500
N289        N  0.88953103  0.15111942  0.49308311    -0.25800
N290        N  0.88224083  0.16150773  0.48168580    -0.33700
C291        C  0.86514526  0.15945857  0.48203159     0.02500
C292        C  0.86115782  0.14726148  0.49418182     0.08500
C293        C  0.87690300  0.14218231  0.50101259    -0.04600
H294        H  0.85619348  0.16673322  0.47425661     0.09200
H295        H  0.87897585  0.13296741  0.51122296     0.10400
Cu296      Cu  0.89478041  0.17944878  0.46657687     0.44200
Cu297      Cu  0.91659542  0.15058339  0.49755642     0.42000
Cu298      Cu  0.93776514  0.18710637  0.47758377     0.43900
N299        N  0.90939747  0.19778775  0.45408275    -0.33200
N300        N  0.92532099  0.20103785  0.45879136    -0.27500
C301        C  0.93246202  0.21180704  0.44741098    -0.03600
C302        C  0.92043497  0.21554323  0.43495015     0.08600
C303        C  0.90595010  0.20640355  0.43947520     0.02400
H304        H  0.94589652  0.21517332  0.44723947     0.10100
H305        H  0.89438849  0.20488755  0.43195430     0.09200
N306        N  0.95066508  0.16879636  0.49178523    -0.34700
N307        N  0.94361076  0.15504922  0.49887704    -0.26900
C308        C  0.95637475  0.14554755  0.50601668    -0.02100
C309        C  0.97195188  0.15383946  0.50317032     0.06500
C310        C  0.96771253  0.16843582  0.49413683     0.04600
H311        H  0.95450362  0.13340863  0.51263546     0.09700
H312        H  0.97650402  0.17807596  0.48925299     0.08500
N313        N  0.69565538  0.14316297  0.52860072    -0.25800
N314        N  0.70384598  0.14569262  0.54326400    -0.33700
C315        C  0.72078002  0.14379612  0.54104507     0.02500
C316        C  0.72378656  0.13985759  0.52417398     0.08500
C317        C  0.70757562  0.13954992  0.51650968    -0.04600
H318        H  0.73031316  0.14599325  0.55090113     0.09200
H319        H  0.70474622  0.13736168  0.50311094     0.10400
Cu320      Cu  0.69289238  0.15520865  0.56514288     0.44200
Cu321      Cu  0.66841671  0.14610000  0.52696842     0.42000
Cu322      Cu  0.65241429  0.17469658  0.56078470     0.43900
N323        N  0.68460332  0.17396704  0.58155782    -0.33200
N324        N  0.66992276  0.18210567  0.57937522    -0.27500
C325        C  0.66967154  0.19593679  0.58965537    -0.03600
C326        C  0.68493073  0.19633175  0.59870330     0.08600
C327        C  0.69413279  0.18232350  0.59321375     0.02400
H328        H  0.65977673  0.20563157  0.58954507     0.10100
H329        H  0.70735574  0.17939927  0.59614632     0.09200
N330        N  0.63660559  0.16167001  0.54381316    -0.34700
N331        N  0.64184997  0.15093808  0.53177202    -0.26900
C332        C  0.62775751  0.14370746  0.52454670    -0.02100
C333        C  0.61318629  0.15026107  0.53245525     0.06500
C334        C  0.61938752  0.16157440  0.54451681     0.04600
H335        H  0.62807999  0.13408321  0.51456428     0.09700
H336        H  0.61191952  0.16884935  0.55361490     0.08500
N337        N  0.38959477  0.15035703  0.52887811    -0.25800
N338        N  0.38244781  0.16556941  0.53150621    -0.33700
C339        C  0.36532236  0.16400588  0.53194713     0.02500
C340        C  0.36103091  0.14707885  0.52950277     0.08500
C341        C  0.37672113  0.13865094  0.52758013    -0.04600
H342        H  0.35656214  0.17458291  0.53388688     0.09200
H343        H  0.37859611  0.12507555  0.52539231     0.10400
Cu344      Cu  0.39501768  0.18874638  0.53427959     0.44200
Cu345      Cu  0.41696888  0.14711216  0.52720981     0.42000
Cu346      Cu  0.43873083  0.18891573  0.52677789     0.43900
N347        N  0.40916303  0.21109698  0.53578064    -0.33200
N348        N  0.42572296  0.21112549  0.53255777    -0.27500
C349        C  0.43207266  0.22687721  0.53549417    -0.03600
C350        C  0.41877290  0.23723867  0.54072240     0.08600
C351        C  0.40441378  0.22688057  0.54088120     0.02400
H352        H  0.44547903  0.23025285  0.53478027     0.10100
H353        H  0.39170808  0.23029844  0.54513083     0.09200
N354        N  0.45142431  0.16580118  0.52539426    -0.34700
N355        N  0.44436170  0.15033571  0.52596682    -0.26900
C356        C  0.45732258  0.13864625  0.52606547    -0.02100
C357        C  0.47296518  0.14740251  0.52552491     0.06500
C358        C  0.46855549  0.16446179  0.52510001     0.04600
H359        H  0.45554821  0.12488434  0.52676837     0.09700
H360        H  0.47724711  0.17529028  0.52503900     0.08500
N361        N  0.19229611  0.12501475  0.53611068    -0.25800
N362        N  0.19834915  0.11108777  0.54386072    -0.33700
C363        C  0.21555889  0.11156461  0.54424906     0.02500
C364        C  0.22100286  0.12642452  0.53640203     0.08500
C365        C  0.20593260  0.13474981  0.53134842    -0.04600
H366        H  0.22357358  0.10154645  0.54960526     0.09200
H367        H  0.20499580  0.14681825  0.52450313     0.10400
Cu368      Cu  0.18391139  0.09078362  0.55292522     0.44200
Cu369      Cu  0.16528327  0.12900857  0.53215545     0.42000
Cu370      Cu  0.14065635  0.08983579  0.54158790     0.43900
N371        N  0.16823046  0.07040559  0.55929902    -0.33200
N372        N  0.15197683  0.06987179  0.55464215    -0.27500
C373        C  0.14484293  0.05532744  0.56059733    -0.03600
C374        C  0.15732671  0.04638751  0.56942453     0.08600
C375        C  0.17200218  0.05618633  0.56835315     0.02400
H376        H  0.13159529  0.05169728  0.55880147     0.10100
H377        H  0.18443944  0.05326380  0.57377915     0.09200
N378        N  0.12977130  0.11231737  0.53302627    -0.34700
N379        N  0.13787652  0.12694481  0.52991515    -0.26900
C380        C  0.12582761  0.13884009  0.52564117    -0.02100
C381        C  0.10968431  0.13109540  0.52616558     0.06500
C382        C  0.11284130  0.11439691  0.53087238     0.04600
H383        H  0.12855873  0.15211288  0.52250131     0.09700
H384        H  0.10341304  0.10439392  0.53289533     0.08500
N385        N  0.28627081  0.90692636  0.58450860    -0.25800
N386        N  0.27024491  0.90771291  0.57888252    -0.33700
C387        C  0.26998719  0.90690674  0.56167519     0.02500
C388        C  0.28655344  0.90555274  0.55589318     0.08500
C389        C  0.29664316  0.90561141  0.57067761    -0.04600
H390        H  0.25851405  0.90781920  0.55388752     0.09200
H391        H  0.31048481  0.90513723  0.57129308     0.10400
Cu392      Cu  0.24888889  0.91182985  0.59391561     0.44200
Cu393      Cu  0.29266772  0.90857534  0.61110288     0.42000
Cu394      Cu  0.25612994  0.92342752  0.63655663     0.43900
N395        N  0.22949812  0.92081011  0.60944279    -0.33200
N396        N  0.23235360  0.92569698  0.62536548    -0.27500
C397        C  0.21828617  0.93348857  0.63145927    -0.03600
C398        C  0.20597619  0.93333487  0.61870837     0.08600
C399        C  0.21350716  0.92533070  0.60490265     0.02400
H400        H  0.21762500  0.94003409  0.64361421     0.10100
H401        H  0.20838158  0.92439865  0.59204434     0.09200
N402        N  0.27967059  0.91736466  0.64681317    -0.34700
N403        N  0.29308900  0.91150217  0.63831073    -0.26900
C404        C  0.30549878  0.90767388  0.64995664    -0.02100
C405        C  0.29935959  0.91138887  0.66628327     0.06500
C406        C  0.28306921  0.91748958  0.66366817     0.04600
H407        H  0.31788089  0.90229242  0.64683371     0.09700
H408        H  0.27401609  0.92130779  0.67342759     0.08500
N409        N  0.30622880  0.92228891  0.33374947    -0.25800
N410        N  0.31901108  0.93111345  0.32696343    -0.33700
C411        C  0.31866586  0.92977120  0.30983083     0.02500
C412        C  0.30503103  0.91964258  0.30518826     0.08500
C413        C  0.29730371  0.91502345  0.32065433    -0.04600
H414        H  0.32762062  0.93606212  0.30129829     0.09200
H415        H  0.28598615  0.90713742  0.32222213     0.10400
Cu416      Cu  0.33594994  0.94612228  0.34039021     0.44200
Cu417      Cu  0.30253365  0.92179617  0.36095956     0.42000
Cu418      Cu  0.32734297  0.95624296  0.38308474     0.43900
N419        N  0.34994118  0.96403837  0.35363397    -0.33200
N420        N  0.34651836  0.96843889  0.36956255    -0.27500
C421        C  0.35796321  0.98031470  0.37472587    -0.03600
C422        C  0.36893241  0.98339634  0.36122014     0.08600
C423        C  0.36354180  0.97292510  0.34809809     0.02400
H424        H  0.35848515  0.98589173  0.38737193     0.10100
H425        H  0.36919502  0.97166009  0.33555579     0.09200
N426        N  0.31222128  0.93831212  0.39543238    -0.34700
N427        N  0.30372506  0.92547303  0.38817906    -0.26900
C428        C  0.29718531  0.91557640  0.40092842    -0.02100
C429        C  0.30185202  0.92264962  0.41666980     0.06500
C430        C  0.31128992  0.93697785  0.41257848     0.04600
H431        H  0.28995524  0.90391248  0.39892434     0.09700
H432        H  0.31762842  0.94552999  0.42144967     0.08500
N433        N  0.30581247  0.89738909  0.13716347    -0.25800
N434        N  0.30709598  0.88181915  0.14400106    -0.33700
C435        C  0.30620966  0.88284094  0.16115534     0.02500
C436        C  0.30422708  0.89976050  0.16569368     0.08500
C437        C  0.30402505  0.90874426  0.15019573    -0.04600
H438        H  0.30671041  0.87188380  0.16974942     0.09200
H439        H  0.30255483  0.92248680  0.14853330     0.10400
Cu440      Cu  0.30876354  0.85890512  0.13080751     0.44200
Cu441      Cu  0.30636040  0.90185505  0.11004700     0.42000
Cu442      Cu  0.30731910  0.86148991  0.08626570     0.43900
N443        N  0.30678022  0.83721025  0.11576960    -0.33200
N444        N  0.30613024  0.83832756  0.09890956    -0.27500
C445        C  0.30327309  0.82268182  0.09231228    -0.03600
C446        C  0.30206485  0.81121749  0.10574524     0.08600
C447        C  0.30432384  0.82075072  0.12047099     0.02400
H448        H  0.30149654  0.82001554  0.07884332     0.10100
H449        H  0.30349810  0.81624987  0.13355905     0.09200
N450        N  0.30781001  0.88525237  0.07472266    -0.34700
N451        N  0.30748026  0.90025128  0.08266892    -0.26900
C452        C  0.30815276  0.91274239  0.07049182    -0.02100
C453        C  0.30891345  0.90498955  0.05440738     0.06500
C454        C  0.30865844  0.88767048  0.05772003     0.04600
H455        H  0.30818943  0.92638535  0.07311682     0.09700
H456        H  0.30916393  0.87742083  0.04838901     0.08500
N457        N  0.30505090  0.92158897  0.83266024    -0.25800
N458        N  0.29189235  0.92963127  0.82545362    -0.33700
C459        C  0.29275702  0.92826156  0.80834072     0.02500
C460        C  0.30706746  0.91891132  0.80423567     0.08500
C461        C  0.31468335  0.91483129  0.81992516    -0.04600
H462        H  0.28317664  0.93318566  0.79950742     0.09200
H463        H  0.32610053  0.90715119  0.82192979     0.10400
Cu464      Cu  0.27120545  0.93980844  0.83815861     0.44200
Cu465      Cu  0.30784150  0.91961009  0.85984113     0.42000
Cu466      Cu  0.26610198  0.92544020  0.88014806     0.43900
N467        N  0.24814787  0.94170427  0.85069261    -0.33200
N468        N  0.24598931  0.93548174  0.86627520    -0.27500
C469        C  0.22933354  0.93645603  0.87043614    -0.03600
C470        C  0.22073197  0.94369986  0.85673088     0.08600
C471        C  0.23293899  0.94680718  0.84439473     0.02400
H472        H  0.22386369  0.93161974  0.88220522     0.10100
H473        H  0.23080709  0.95146787  0.83148555     0.09200
N474        N  0.28839189  0.92088280  0.89354855    -0.34700
N475        N  0.30389086  0.91929910  0.88691132    -0.26900
C476        C  0.31522936  0.91802002  0.90010746    -0.02100
C477        C  0.30620697  0.91883454  0.91547750     0.06500
C478        C  0.28936030  0.92062379  0.91070908     0.04600
H479        H  0.32894622  0.91683276  0.89865506     0.09700
H480        H  0.27850193  0.92210033  0.91914773     0.08500
N481        N  0.32614793  0.65848982  0.98210314    -0.25800
N482        N  0.33109937  0.66026893  0.99828001    -0.33700
C483        C  0.34827626  0.66120726  0.99916100     0.02500
C484        C  0.35482161  0.66000059  0.98287353     0.08500
C485        C  0.34046094  0.65828667  0.97227568    -0.04600
H486        H  0.35547793  0.66314467  0.01087783     0.09200
H487        H  0.34043235  0.65730472  0.95844396     0.10400
Cu488      Cu  0.31512548  0.66321141  0.01911994     0.44200
Cu489      Cu  0.29961092  0.65706179  0.97475757     0.42000
Cu490      Cu  0.27127940  0.66018918  0.01209734     0.43900
N491        N  0.29765282  0.67012612  0.03764828    -0.33200
N492        N  0.28100884  0.66902595  0.03495058    -0.27500
C493        C  0.27272687  0.67760688  0.04732594    -0.03600
C494        C  0.28483083  0.68431477  0.05837822     0.08600
C495        C  0.30048756  0.67939385  0.05186966     0.02400
H496        H  0.25916755  0.68037154  0.04717019     0.10100
H497        H  0.31294493  0.68386339  0.05599481     0.09200
N498        N  0.26263090  0.65619814  0.98749430    -0.34700
N499        N  0.27213658  0.65566399  0.97348543    -0.26900
C500        C  0.26131829  0.65420965  0.95985536    -0.02100
C501        C  0.24448443  0.65374595  0.96585443     0.06500
C502        C  0.24598534  0.65504926  0.98332903     0.04600
H503        H  0.26535688  0.65355943  0.94662206     0.09700
H504        H  0.23561081  0.65553313  0.99247765     0.08500
N505        N  0.52075228  0.69295376  0.96443864    -0.25800
N506        N  0.51207365  0.70596167  0.95765076    -0.33700
C507        C  0.49516970  0.70330251  0.95945398     0.02500
C508        C  0.49268746  0.68789085  0.96773455     0.08500
C509        C  0.50917546  0.68157246  0.97076147    -0.04600
H510        H  0.48533633  0.71187887  0.95468337     0.09200
H511        H  0.51246696  0.66952031  0.97688002     0.10400
Cu512      Cu  0.52239746  0.72661257  0.94460502     0.44200
Cu513      Cu  0.54826333  0.69179118  0.96397932     0.42000
Cu514      Cu  0.56700028  0.72721681  0.93925813     0.43900
N515        N  0.53426647  0.74435807  0.92893893    -0.33200
N516        N  0.55102814  0.74444808  0.92684266    -0.27500
C517        C  0.55511103  0.75628722  0.91497341    -0.03600
C518        C  0.54015085  0.76396681  0.90941329     0.08600
C519        C  0.52713505  0.75613846  0.91844303     0.02400
H520        H  0.56789968  0.75865497  0.91031503     0.10100
H521        H  0.51354135  0.75832002  0.91703139     0.09200
N522        N  0.58147635  0.70868038  0.95167261    -0.34700
N523        N  0.57532063  0.69559901  0.96064425    -0.26900
C524        C  0.58886756  0.68623145  0.96642872    -0.02100
C525        C  0.60400455  0.69390463  0.96076453     0.06500
C526        C  0.59868225  0.70802017  0.95151131     0.04600
H527        H  0.58781145  0.67465703  0.97408801     0.09700
H528        H  0.60678227  0.71718490  0.94493149     0.08500
N529        N  0.82699220  0.66294597  0.96103032    -0.25800
N530        N  0.83446598  0.65516090  0.97422403    -0.33700
C531        C  0.85137214  0.65372055  0.97152556     0.02500
C532        C  0.85522348  0.66089942  0.95591952     0.08500
C533        C  0.83947045  0.66669059  0.94947540    -0.04600
H534        H  0.86031421  0.64802935  0.98052200     0.09200
H535        H  0.83732077  0.67326959  0.93743055     0.10400
Cu536      Cu  0.82270829  0.64705871  0.99638021     0.44200
Cu537      Cu  0.79977745  0.66805394  0.96067577     0.42000
Cu538      Cu  0.78123695  0.66074798  0.00342307     0.43900
N539        N  0.80963271  0.64023481  0.01820094    -0.33200
N540        N  0.79395063  0.64574326  0.02106447    -0.27500
C541        C  0.78748276  0.63737254  0.03467043    -0.03600
C542        C  0.79985564  0.62617014  0.04063996     0.08600
C543        C  0.81372398  0.62823484  0.02993200     0.02400
H544        H  0.77435233  0.63816654  0.03878483     0.10100
H545        H  0.82520054  0.62055477  0.02970133     0.09200
N546        N  0.76726334  0.66907977  0.98260889    -0.34700
N547        N  0.77298893  0.67124114  0.96678250    -0.26900
C548        C  0.75920639  0.67499478  0.95669076    -0.02100
C549        C  0.74445905  0.67512823  0.96683382     0.06500
C550        C  0.75023182  0.67133432  0.98304582     0.04600
H551        H  0.75978753  0.67716362  0.94299149     0.09700
H552        H  0.74247887  0.66975531  0.99441989     0.08500
N553        N  0.02289821  0.64817231  0.95361954    -0.25800
N554        N  0.01567010  0.64384818  0.96834557    -0.33700
C555        C  0.99855284  0.64461875  0.96695820     0.02500
C556        C  0.99429883  0.64968539  0.95062623     0.08500
C557        C  0.01003322  0.65186545  0.94236560    -0.04600
H558        H  0.98981631  0.64258049  0.97749066     0.09200
H559        H  0.01194682  0.65631838  0.92936102     0.10400
Cu560      Cu  0.02797508  0.64132234  0.99145290     0.44200
Cu561      Cu  0.05040841  0.64959140  0.95105218     0.42000
Cu562      Cu  0.07113093  0.65130205  0.99314687     0.43900
N563        N  0.03876903  0.65229045  0.01270645    -0.33200
N564        N  0.05512522  0.65646183  0.01318714    -0.27500
C565        C  0.05783555  0.66749682  0.02607654    -0.03600
C566        C  0.04234894  0.67039004  0.03391155     0.08600
C567        C  0.03049910  0.66060017  0.02523137     0.02400
H568        H  0.06973965  0.67424003  0.02837696     0.10100
H569        H  0.01672244  0.66097252  0.02664251     0.09200
N570        N  0.08452778  0.64977521  0.97067604    -0.34700
N571        N  0.07781058  0.64956499  0.95505083    -0.26900
C572        C  0.09104974  0.64944045  0.94377291    -0.02100
C573        C  0.10648417  0.64957819  0.95297516     0.06500
C574        C  0.10169082  0.64978785  0.96987011     0.04600
H575        H  0.08960048  0.64939487  0.92999636     0.09700
H576        H  0.11009108  0.65021612  0.98089206     0.08500
N577        N  0.54779167  0.06357554  0.24883129    -0.25800
N578        N  0.53527957  0.07045425  0.25797557    -0.33700
C579        C  0.53649012  0.08765123  0.25761829     0.02500
C580        C  0.55037024  0.09221152  0.24787103     0.08500
C581        C  0.55734249  0.07666792  0.24241966    -0.04600
H582        H  0.52801682  0.09625152  0.26440074     0.09200
H583        H  0.56866493  0.07501883  0.23464253     0.10400
Cu584      Cu  0.51733506  0.05746060  0.27240275     0.44200
Cu585      Cu  0.55122452  0.03629984  0.24651063     0.42000
Cu586      Cu  0.52583330  0.01425181  0.27877921     0.43900
N587        N  0.50287960  0.04278413  0.28897296    -0.33200
N588        N  0.50655974  0.02647113  0.29168007    -0.27500
C589        C  0.49517751  0.01972669  0.30262824    -0.03600
C590        C  0.48387562  0.03251711  0.30706230     0.08600
C591        C  0.48900003  0.04699557  0.29819958     0.02400
H592        H  0.49486405  0.00640174  0.30661566     0.10100
H593        H  0.48293326  0.05949590  0.29815646     0.09200
N594        N  0.54129119  0.00166069  0.26177358    -0.34700
N595        N  0.55032619  0.00886151  0.24936046    -0.26900
C596        C  0.55742297  0.99597451  0.24005690    -0.02100
C597        C  0.55247629  0.98023770  0.24718597     0.06500
C598        C  0.54233683  0.98450721  0.26082302     0.04600
H599        H  0.56530697  0.99786472  0.22884516     0.09700
H600        H  0.53569006  0.97571061  0.26926875     0.08500
N601        N  0.55852373  0.31489861  0.24594412    -0.25800
N602        N  0.56088124  0.32399711  0.23178734    -0.33700
C603        C  0.55841336  0.34070635  0.23489794     0.02500
C604        C  0.55429847  0.34262939  0.25182257     0.08500
C605        C  0.55444025  0.32603436  0.25864698    -0.04600
H606        H  0.55922485  0.35074960  0.22531745     0.09200
H607        H  0.55159394  0.32235689  0.27169984     0.10400
Cu608      Cu  0.56571203  0.31450764  0.20789488     0.44200
Cu609      Cu  0.56078392  0.28755770  0.24584292     0.42000
Cu610      Cu  0.56755081  0.27075182  0.20166481     0.43900
N611        N  0.56487892  0.30428287  0.18380622    -0.33200
N612        N  0.56521930  0.28756765  0.18125277    -0.27500
C613        C  0.56140311  0.28440544  0.16472741    -0.03600
C614        C  0.55862843  0.30000223  0.15668140     0.08600
C615        C  0.56087069  0.31232584  0.16909741     0.02400
H616        H  0.55947567  0.27176849  0.15937238     0.10100
H617        H  0.55833729  0.32591779  0.16791779     0.09200
N618        N  0.56698334  0.25575385  0.22357979    -0.34700
N619        N  0.56419680  0.26110526  0.23944547    -0.26900
C620        C  0.56353193  0.24705385  0.24975359    -0.02100
C621        C  0.56606403  0.23245827  0.23979987     0.06500
C622        C  0.56819644  0.23855251  0.22340081     0.04600
H623        H  0.56100430  0.24739191  0.26337492     0.09700
H624        H  0.56995552  0.23096240  0.21194383     0.08500
N625        N  0.53769645  0.75730583  0.24298528    -0.25800
N626        N  0.52307708  0.75032138  0.24803274    -0.33700
C627        C  0.52423366  0.73315909  0.24768255     0.02500
C628        C  0.54025894  0.72868972  0.24217070     0.08500
C629        C  0.54863103  0.74427259  0.23927901    -0.04600
H630        H  0.51409606  0.72448406  0.25158388     0.09200
H631        H  0.56172244  0.74597912  0.23505875     0.10400
Cu632      Cu  0.50174336  0.76304550  0.25659459     0.44200
Cu633      Cu  0.54123160  0.78462529  0.24209483     0.42000
Cu634      Cu  0.50207211  0.80725431  0.25585198     0.43900
N635        N  0.48228974  0.77692663  0.26748038    -0.33200
N636        N  0.48234328  0.79384092  0.26710839    -0.27500
C637        C  0.47023475  0.79972367  0.27775454    -0.03600
C638        C  0.46218740  0.78574941  0.28509765     0.08600
C639        C  0.47017187  0.77147994  0.27838488     0.02400
H640        H  0.46880399  0.81302712  0.28137844     0.10100
H641        H  0.46867467  0.75832908  0.28256573     0.09200
N642        N  0.52407141  0.81949083  0.24790716    -0.34700
N643        N  0.53854000  0.81203989  0.24312757    -0.26900
C644        C  0.54998555  0.82469982  0.23960381    -0.02100
C645        C  0.54216648  0.84057638  0.24237338     0.06500
C646        C  0.52585983  0.83663240  0.24758954     0.04600
H647        H  0.56301290  0.82254462  0.23543226     0.09700
H648        H  0.51591462  0.84564078  0.25111907     0.08500
N649        N  0.54021680  0.50881133  0.27412863    -0.25800
N650        N  0.54112308  0.50201699  0.28968763    -0.33700
C651        C  0.54045990  0.48483745  0.28867065     0.02500
C652        C  0.53904419  0.48031123  0.27172995     0.08500
C653        C  0.53892773  0.49577932  0.26272215    -0.04600
H654        H  0.54172198  0.47621222  0.29952231     0.09200
H655        H  0.53848047  0.49740422  0.24894588     0.10400
Cu656      Cu  0.54628863  0.51526638  0.31189312     0.44200
Cu657      Cu  0.54204359  0.53573048  0.26997549     0.42000
Cu658      Cu  0.55709444  0.55869274  0.30848367     0.43900
N659        N  0.55973901  0.52775056  0.33084551    -0.33200
N660        N  0.56445540  0.54394747  0.32934303    -0.27500
C661        C  0.57686122  0.54722563  0.34089973    -0.03600
C662        C  0.57997602  0.53234201  0.35010054     0.08600
C663        C  0.56892143  0.52027374  0.34339115     0.02400
H664        H  0.58450500  0.55882498  0.34106599     0.10100
H665        H  0.56928236  0.50656632  0.34572369     0.09200
N666        N  0.55028603  0.57064791  0.28571266    -0.34700
N667        N  0.54498676  0.56281536  0.27159477    -0.26900
C668        C  0.54222097  0.57495055  0.25940372    -0.02100
C669        C  0.54600086  0.59095943  0.26631141     0.06500
C670        C  0.55102163  0.58767158  0.28293022     0.04600
H671        H  0.53789026  0.57232281  0.24648440     0.09700
H672        H  0.55509320  0.59699359  0.29235651     0.08500
N673        N  0.05200090  0.96678531  0.72438150    -0.25800
N674        N  0.05823842  0.97521221  0.73774817    -0.33700
C675        C  0.05858218  0.99212479  0.73433464     0.02500
C676        C  0.05228649  0.99480227  0.71805993     0.08500
C677        C  0.04818748  0.97848182  0.71200250    -0.04600
H678        H  0.06322366  0.00179884  0.74311281     0.09200
H679        H  0.04291059  0.97536707  0.69956017     0.10400
Cu680      Cu  0.06685781  0.96430077  0.76033246     0.44200
Cu681      Cu  0.04939831  0.93948893  0.72433605     0.42000
Cu682      Cu  0.06562370  0.91944801  0.76408284     0.43900
N683        N  0.07719256  0.95161475  0.78119144    -0.33200
N684        N  0.07680627  0.93472984  0.78257715    -0.27500
C685        C  0.08639370  0.92990319  0.79611557    -0.03600
C686        C  0.09300753  0.94452543  0.80358851     0.08600
C687        C  0.08704137  0.95806585  0.79379157     0.02400
H688        H  0.08943659  0.91675430  0.79938066     0.10100
H689        H  0.09071158  0.97139861  0.79484891     0.09200
N690        N  0.05493498  0.90586989  0.74400450    -0.34700
N691        N  0.04895733  0.91254855  0.72951612    -0.26900
C692        C  0.04296221  0.89947726  0.71973446    -0.02100
C693        C  0.04538102  0.88409712  0.72859901     0.06500
C694        C  0.05297594  0.88872827  0.74383400     0.04600
H695        H  0.03722252  0.90103730  0.70717384     0.09700
H696        H  0.05677458  0.88023520  0.75417616     0.08500
N697        N  0.02032749  0.71707377  0.70976307    -0.25800
N698        N  0.00867855  0.72395109  0.69941995    -0.33700
C699        C  0.00831797  0.74105967  0.70148515     0.02500
C700        C  0.02029480  0.74550894  0.71364524     0.08500
C701        C  0.02775874  0.73001971  0.71870442    -0.04600
H702        H  0.00065187  0.74975853  0.69379755     0.09200
H703        H  0.03830724  0.72839286  0.72761083     0.10400
Cu704      Cu  0.99632361  0.71141458  0.67973636     0.44200
Cu705      Cu  0.02617696  0.69026973  0.70935967     0.42000
Cu706      Cu  0.01272333  0.67106049  0.66870872     0.43900
N707        N  0.99226984  0.70074774  0.65595361    -0.33200
N708        N  0.99899911  0.68587252  0.65153473    -0.27500
C709        C  0.99609907  0.68319526  0.63475320    -0.03600
C710        C  0.98714268  0.69714030  0.62845570     0.08600
C711        C  0.98492914  0.70804954  0.64213817     0.02400
H712        H  0.00068746  0.67225687  0.62761242     0.10100
H713        H  0.97917637  0.72068179  0.64191338     0.09200
N714        N  0.02393060  0.65731587  0.68842746    -0.34700
N715        N  0.02868404  0.66360793  0.70347028    -0.26900
C716        C  0.03442740  0.65033081  0.71324388    -0.02100
C717        C  0.03317219  0.63524548  0.70373476     0.06500
C718        C  0.02649113  0.64026991  0.68818254     0.04600
H719        H  0.03890186  0.65150147  0.72634089     0.09700
H720        H  0.02329070  0.63202711  0.67748222     0.08500
N721        N  0.04833954  0.16132624  0.71072266    -0.25800
N722        N  0.04129770  0.15391164  0.72428830    -0.33700
C723        C  0.04149728  0.13678670  0.72253406     0.02500
C724        C  0.04896570  0.13280218  0.70718103     0.08500
C725        C  0.05323385  0.14863057  0.69988280    -0.04600
H726        H  0.03636564  0.12783794  0.73181854     0.09200
H727        H  0.05932102  0.15072889  0.68763357     0.10400
Cu728      Cu  0.03056678  0.16603391  0.74500283     0.44200
Cu729      Cu  0.05027495  0.18874625  0.70831319     0.42000
Cu730      Cu  0.02741938  0.21019585  0.74351231     0.43900
N731        N  0.01823165  0.17944040  0.76394393    -0.33200
N732        N  0.01679538  0.19629212  0.76323304    -0.27500
C733        C  0.00857413  0.20183729  0.77724993    -0.03600
C734        C  0.00462921  0.18766333  0.78711908     0.08600
C735        C  0.01096253  0.17366078  0.77842971     0.02400
H736        H  0.00614321  0.21516476  0.78024221     0.10100
H737        H  0.01070757  0.16036997  0.78249339     0.09200
N738        N  0.04015851  0.22305714  0.72435305    -0.34700
N739        N  0.04868627  0.21609269  0.71148166    -0.26900
C740        C  0.05531362  0.22914591  0.70198203    -0.02100
C741        C  0.05060799  0.24473955  0.70941854     0.06500
C742        C  0.04108941  0.24023314  0.72346119     0.04600
H743        H  0.06292077  0.22745190  0.69055437     0.09700
H744        H  0.03517272  0.24888291  0.73251994     0.08500
N745        N  0.03829552  0.41184643  0.71809620    -0.25800
N746        N  0.03163413  0.40347744  0.73127530    -0.33700
C747        C  0.03336219  0.38648512  0.72909618     0.02500
C748        C  0.04155866  0.38360536  0.71384965     0.08500
C749        C  0.04457043  0.39995693  0.70707845    -0.04600
H750        H  0.02925711  0.37687156  0.73826464     0.09200
H751        H  0.05105313  0.40295391  0.69520250     0.10400
Cu752      Cu  0.02148077  0.41452623  0.75280297     0.44200
Cu753      Cu  0.03836793  0.43937036  0.71710540     0.42000
Cu754      Cu  0.01923191  0.45905138  0.75609431     0.43900
N755        N  0.01328229  0.42633366  0.77475274    -0.33200
N756        N  0.01224342  0.44317332  0.77612976    -0.27500
C757        C  0.00601287  0.44710405  0.79168441    -0.03600
C758        C  0.00324069  0.43188447  0.80039715     0.08600
C759        C  0.00783998  0.41898485  0.78931480     0.02400
H760        H  0.00324045  0.45994909  0.79605809     0.10100
H761        H  0.00675932  0.40530197  0.79141401     0.09200
N762        N  0.02855764  0.47281107  0.73544939    -0.34700
N763        N  0.03569257  0.46642072  0.72145483    -0.26900
C764        C  0.04067051  0.47984420  0.71150549    -0.02100
C765        C  0.03639851  0.49510744  0.71974573     0.06500
C766        C  0.02877979  0.49004525  0.73476924     0.04600
H767        H  0.04704277  0.47861032  0.69927495     0.09700
H768        H  0.02389906  0.49834405  0.74473304     0.08500
N769        N  0.01871352  0.28061709  0.95828184    -0.25800
N770        N  0.02596960  0.26601513  0.95352260    -0.33700
C771        C  0.04306158  0.26794669  0.95288513     0.02500
C772        C  0.04712378  0.28450549  0.95745109     0.08500
C773        C  0.03139537  0.29228120  0.96082997    -0.04600
H774        H  0.05193444  0.25792674  0.94925618     0.09200
H775        H  0.02935217  0.30542264  0.96481639     0.10400
Cu776      Cu  0.01312548  0.24366713  0.94731082     0.44200
Cu777      Cu  0.99149196  0.28318058  0.96081782     0.42000
Cu778      Cu  0.96913191  0.24205169  0.95503647     0.43900
N779        N  0.99806133  0.22366410  0.93869267    -0.33200
N780        N  0.98148117  0.22297203  0.94175961    -0.27500
C781        C  0.97423259  0.21132434  0.93133053    -0.03600
C782        C  0.98692371  0.20433407  0.92128286     0.08600
C783        C  0.00186505  0.21241674  0.92627454     0.02400
H784        H  0.96056596  0.20987459  0.92951664     0.10100
H785        H  0.01405250  0.21192499  0.91975521     0.09200
N786        N  0.95688210  0.26469731  0.96083767    -0.34700
N787        N  0.96425736  0.27995599  0.96227868    -0.26900
C788        C  0.95162081  0.29180304  0.96396246    -0.02100
C789        C  0.93582435  0.28342363  0.96354361     0.06500
C790        C  0.93978460  0.26635713  0.96156023     0.04600
H791        H  0.95372515  0.30551902  0.96496221     0.09700
H792        H  0.93080997  0.25585682  0.96001507     0.08500
N793        N  0.21400241  0.31576381  0.96953383    -0.25800
N794        N  0.20702149  0.32490744  0.98199911    -0.33700
C795        C  0.18989013  0.32320814  0.98152455     0.02500
C796        C  0.18550039  0.31255428  0.96818475     0.08500
C797        C  0.20108310  0.30799999  0.96077640    -0.04600
H798        H  0.18119160  0.32950576  0.99024390     0.09200
H799        H  0.20286213  0.29974259  0.94980605     0.10400
Cu800      Cu  0.21993403  0.34041384  0.99930713     0.44200
Cu801      Cu  0.24117366  0.31471249  0.96539645     0.42000
Cu802      Cu  0.26455143  0.33959965  0.99750552     0.43900
N803        N  0.23484042  0.35667966  0.01411133    -0.33200
N804        N  0.25171112  0.35609305  0.01350734    -0.27500
C805        C  0.25823553  0.36916326  0.02262991    -0.03600
C806        C  0.24478115  0.37839487  0.02931311     0.08600
C807        C  0.23009185  0.37022213  0.02366611     0.02400
H808        H  0.27168722  0.37241087  0.02328296     0.10100
H809        H  0.21701809  0.37444124  0.02537711     0.09200
N810        N  0.27641487  0.32583884  0.97845511    -0.34700
N811        N  0.26859356  0.31689163  0.96631328    -0.26900
C812        C  0.28088615  0.31038958  0.95590464    -0.02100
C813        C  0.29692851  0.31561319  0.96196606     0.06500
C814        C  0.29344165  0.32532297  0.97619233     0.04600
H815        H  0.27837422  0.30252392  0.94475545     0.09700
H816        H  0.30267598  0.33177539  0.98433488     0.08500
N817        N  0.51969418  0.31121793  0.95113816    -0.25800
N818        N  0.52780909  0.31972590  0.96340724    -0.33700
C819        C  0.54480875  0.31797417  0.96166653     0.02500
C820        C  0.54800684  0.30788303  0.94765751     0.08500
C821        C  0.53180458  0.30373756  0.94115590    -0.04600
H822        H  0.55419897  0.32325290  0.97041287     0.09200
H823        H  0.52906711  0.29565371  0.93024196     0.10400
Cu824      Cu  0.51664917  0.33157076  0.98401586     0.44200
Cu825      Cu  0.49214257  0.31031725  0.94998445     0.42000
Cu826      Cu  0.47290018  0.32807133  0.98940757     0.43900
N827        N  0.50540563  0.33592660  0.00733227    -0.33200
N828        N  0.48878970  0.33410949  0.00960922    -0.27500
C829        C  0.48545367  0.33396663  0.02650495    -0.03600
C830        C  0.50081557  0.33587857  0.03512187     0.08600
C831        C  0.51319421  0.33703241  0.02264677     0.02400
H832        H  0.47310583  0.33110527  0.03203251     0.10100
H833        H  0.52691908  0.33687875  0.02456108     0.09200
N834        N  0.45890828  0.31972621  0.96861610    -0.34700
N835        N  0.46504441  0.31296552  0.95433259    -0.26900
C836        C  0.45142549  0.30855946  0.94434442    -0.02100
C837        C  0.43634061  0.31284239  0.95291321     0.06500
C838        C  0.44172808  0.31984579  0.96812519     0.04600
H839        H  0.45239149  0.30259461  0.93187816     0.09700
H840        H  0.43367968  0.32453715  0.97835923     0.08500
N841        N  0.71597073  0.28730269  0.93360742    -0.25800
N842        N  0.71038959  0.27740889  0.92094851    -0.33700
C843        C  0.69319497  0.27798595  0.92015457     0.02500
C844        C  0.68731742  0.28868113  0.93281996     0.08500
C845        C  0.70206734  0.29443497  0.94117785    -0.04600
H846        H  0.68548308  0.27083916  0.91109360     0.09200
H847        H  0.70261442  0.30298549  0.95206569     0.10400
Cu848      Cu  0.72525785  0.26220393  0.90517787     0.44200
Cu849      Cu  0.74262079  0.28987557  0.94002525     0.42000
Cu850      Cu  0.76816748  0.25855636  0.91687086     0.43900
N851        N  0.74181080  0.24608723  0.89228443    -0.33200
N852        N  0.75797808  0.24461564  0.89703696    -0.27500
C853        C  0.76584760  0.23315209  0.88697322    -0.03600
C854        C  0.75399633  0.22717233  0.87530997     0.08600
C855        C  0.73883698  0.23549745  0.87899925     0.02400
H856        H  0.77909322  0.22931535  0.88823300     0.10100
H857        H  0.72656483  0.23377685  0.87276932     0.09200
N858        N  0.77841624  0.27554633  0.93412600    -0.34700
N859        N  0.76990819  0.28754792  0.94252764    -0.26900
C860        C  0.78154759  0.29683671  0.95161302    -0.02100
C861        C  0.79786319  0.29012861  0.94859798     0.06500
C862        C  0.79522232  0.27673990  0.93752073     0.04600
H863        H  0.77844472  0.30771096  0.95959175     0.09700
H864        H  0.80491913  0.26859625  0.93193761     0.08500
N865        N  0.28872035  0.59701630  0.09395017    -0.25800
N866        N  0.28733440  0.58178683  0.10151195    -0.33700
C867        C  0.28885257  0.58364186  0.11857858     0.02500
C868        C  0.29129719  0.60075081  0.12222042     0.08500
C869        C  0.29115257  0.60894868  0.10634040    -0.04600
H870        H  0.28789912  0.57321326  0.12775406     0.09200
H871        H  0.29245018  0.62260442  0.10399472     0.10400
Cu872      Cu  0.28251620  0.55847173  0.08950284     0.44200
Cu873      Cu  0.28664026  0.60076268  0.06689889     0.42000
Cu874      Cu  0.27758894  0.56066185  0.04505263     0.43900
N875        N  0.27657981  0.53689567  0.07505781    -0.33200
N876        N  0.27473211  0.53796489  0.05827143    -0.27500
C877        C  0.27072024  0.52244258  0.05197924    -0.03600
C878        C  0.27000813  0.51104600  0.06549798     0.08600
C879        C  0.27377817  0.52053040  0.07999813     0.02400
H880        H  0.26845011  0.51971007  0.03859655     0.10100
H881        H  0.27437466  0.51594889  0.09307040     0.09200
N882        N  0.28011633  0.58377808  0.03250295    -0.34700
N883        N  0.28334997  0.59875294  0.03981363    -0.26900
C884        C  0.28376934  0.61086800  0.02725356    -0.02100
C885        C  0.28063458  0.60287167  0.01156746     0.06500
C886        C  0.27842024  0.58581910  0.01550339     0.04600
H887        H  0.28606881  0.62437753  0.02935165     0.09700
H888        H  0.27564789  0.57555042  0.00663864     0.08500
N889        N  0.29714361  0.60767411  0.28924449    -0.25800
N890        N  0.30041096  0.59248150  0.28242773    -0.33700
C891        C  0.30083670  0.59378236  0.26528635     0.02500
C892        C  0.29771401  0.61054489  0.26072505     0.08500
C893        C  0.29538280  0.61914541  0.27620192    -0.04600
H894        H  0.30265876  0.58306216  0.25670278     0.09200
H895        H  0.29227023  0.63257366  0.27781298     0.10400
Cu896      Cu  0.30163896  0.56954873  0.29554509     0.44200
Cu897      Cu  0.29465178  0.61075468  0.31631703     0.42000
Cu898      Cu  0.28796251  0.56895600  0.33797322     0.43900
N899        N  0.29485795  0.54707429  0.30764801    -0.33200
N900        N  0.28890444  0.54684710  0.32343161    -0.27500
C901        C  0.28221685  0.53126258  0.32670045    -0.03600
C902        C  0.28423259  0.52126439  0.31224839     0.08600
C903        C  0.29217117  0.53170176  0.30039589     0.02400
H904        H  0.27502533  0.52801444  0.33808438     0.10100
H905        H  0.29410237  0.52897279  0.28694532     0.09200
N906        N  0.29030119  0.59212484  0.35064902    -0.34700
N907        N  0.29293253  0.60734166  0.34344876    -0.26900
C908        C  0.29461240  0.61904619  0.35619341    -0.02100
C909        C  0.29294132  0.61063833  0.37189926     0.06500
C910        C  0.29022252  0.59370054  0.36778732     0.04600
H911        H  0.29704862  0.63257398  0.35420754     0.09700
H912        H  0.28855917  0.58313137  0.37665379     0.08500
N913        N  0.27485217  0.63272636  0.53824816    -0.25800
N914        N  0.26406903  0.64349902  0.53061277    -0.33700
C915        C  0.26657455  0.64330890  0.51359170     0.02500
C916        C  0.27951995  0.63193569  0.50998811     0.08500
C917        C  0.28455510  0.62536861  0.52588602    -0.04600
H918        H  0.25934889  0.65090208  0.50445307     0.09200
H919        H  0.29445859  0.61593075  0.52825640     0.10400
Cu920      Cu  0.24571647  0.65836133  0.54250554     0.44200
Cu921      Cu  0.27530937  0.62886555  0.56545920     0.42000
Cu922      Cu  0.24139038  0.65318248  0.58672288     0.43900
N923        N  0.22778599  0.67199203  0.55630564    -0.33200
N924        N  0.22607888  0.66983925  0.57298529    -0.27500
C925        C  0.21434648  0.68094255  0.57887742    -0.03600
C926        C  0.20836519  0.69043760  0.56515913     0.08600
C927        C  0.21716680  0.68456758  0.55103498     0.02400
H928        H  0.21107451  0.68253814  0.59222661     0.10100
H929        H  0.21649537  0.68955616  0.53809788     0.09200
N930        N  0.25865846  0.63780592  0.59962577    -0.34700
N931        N  0.27122268  0.62886957  0.59260239    -0.26900
C932        C  0.27987314  0.62080610  0.60546805    -0.02100
C933        C  0.27223820  0.62502235  0.62104824     0.06500
C934        C  0.25893156  0.63576789  0.61672012     0.04600
H935        H  0.29085541  0.61259174  0.60366266     0.09700
H936        H  0.25006630  0.64181118  0.62540180     0.08500
N937        N  0.28350758  0.61161713  0.84435515    -0.25800
N938        N  0.29858593  0.61354908  0.85198436    -0.33700
C939        C  0.29673267  0.61369310  0.86903073     0.02500
C940        C  0.27973621  0.61181894  0.87281681     0.08500
C941        C  0.27151902  0.61050447  0.85690611    -0.04600
H942        H  0.30712807  0.61555050  0.87807723     0.09200
H943        H  0.25789820  0.60915787  0.85465736     0.10400
Cu944      Cu  0.32168785  0.61803721  0.84053292     0.44200
Cu945      Cu  0.28106301  0.61144439  0.81685463     0.42000
Cu946      Cu  0.32092166  0.62719176  0.79750989     0.43900
N947        N  0.34313259  0.62685133  0.82836605    -0.33200
N948        N  0.34264156  0.63089791  0.81197032    -0.27500
C949        C  0.35845428  0.63506117  0.80676911    -0.03600
C950        C  0.36930798  0.63363776  0.82069331     0.08600
C951        C  0.35928418  0.62830238  0.83420185     0.02400
H952        H  0.36197972  0.63755473  0.79362494     0.10100
H953        H  0.36352622  0.62463439  0.84688705     0.09200
N954        N  0.30005721  0.61922400  0.78350466    -0.34700
N955        N  0.28543446  0.61325510  0.78968175    -0.26900
C956        C  0.27531615  0.60909100  0.77607215    -0.02100
C957        C  0.28422115  0.61265811  0.76095767     0.06500
C958        C  0.29973418  0.61900148  0.76631374     0.04600
H959        H  0.26251953  0.60392697  0.77706004     0.09700
H960        H  0.31015515  0.62319694  0.75827375     0.08500
N961        N  0.14400696  0.86887260  0.49664211    -0.25800
N962        N  0.13645709  0.86589808  0.51154295    -0.33700
C963        C  0.11939417  0.86563525  0.50955259     0.02500
C964        C  0.11548023  0.86847374  0.49263563     0.08500
C965        C  0.13138074  0.87051131  0.48464489    -0.04600
H966        H  0.11044342  0.86259686  0.51968448     0.09200
H967        H  0.13357622  0.87245226  0.47109049     0.10400
Cu968      Cu  0.14813488  0.85849920  0.53400572     0.44200
Cu969      Cu  0.17159695  0.86926747  0.49433600     0.42000
Cu970      Cu  0.19168199  0.85575752  0.53506205     0.43900
N971        N  0.16022565  0.84369350  0.55220688    -0.33200
N972        N  0.17705572  0.84275161  0.55266389    -0.27500
C973        C  0.18172759  0.82900668  0.56199655    -0.03600
C974        C  0.16706478  0.82087128  0.56760618     0.08600
C975        C  0.15363107  0.83049267  0.56114833     0.02400
H976        H  0.19457396  0.82384386  0.56236443     0.10100
H977        H  0.14030484  0.82675025  0.56074146     0.09200
N978        N  0.20529554  0.86373727  0.51400889    -0.34700
N979        N  0.19892410  0.86815936  0.49884328    -0.26900
C980        C  0.21242794  0.87093610  0.48820536    -0.02100
C981        C  0.22765853  0.86806331  0.49733192     0.06500
C982        C  0.22246433  0.86357284  0.51350034     0.04600
H983        H  0.21128951  0.87442860  0.47482790     0.09700
H984        H  0.23062084  0.85986831  0.52413741     0.08500
N985        N  0.95026372  0.83354012  0.48090022    -0.25800
N986        N  0.95873813  0.81893999  0.47901910    -0.33700
C987        C  0.97563189  0.82204641  0.47802884     0.02500
C988        C  0.97833336  0.83944384  0.47931428     0.08500
C989        C  0.96196504  0.84646283  0.48113734    -0.04600
H990        H  0.98535189  0.81218309  0.47719322     0.09200
H991        H  0.95887730  0.85987694  0.48296376     0.10400
Cu992      Cu  0.94823036  0.79477530  0.48102876     0.44200
Cu993      Cu  0.92293600  0.83385287  0.48403754     0.42000
Cu994      Cu  0.90595809  0.79116401  0.49563480     0.43900
N995        N  0.93928141  0.77277618  0.49257537    -0.33200
N996        N  0.92364952  0.77159647  0.49881284    -0.27500
C997        C  0.92284443  0.75784687  0.50927569    -0.03600
C998        C  0.93875986  0.75006490  0.50948868     0.08600
C999        C  0.94886788  0.75986330  0.49882884     0.02400
H1000       H  0.91212267  0.75487102  0.51746744     0.10100
H1001       H  0.96260288  0.75895159  0.49742013     0.09200
N1002       N  0.89068347  0.81255032  0.49148476    -0.34700
N1003       N  0.89622571  0.82810874  0.48732809    -0.26900
C1004       C  0.88231870  0.83848331  0.48572057    -0.02100
C1005       C  0.86758658  0.82889846  0.48903695     0.06500
C1006       C  0.87349407  0.81261051  0.49261145     0.04600
H1007       H  0.88285781  0.85196894  0.48239868     0.09700
H1008       H  0.86583122  0.80150754  0.49583762     0.08500
N1009       N  0.45004323  0.84290237  0.49324332    -0.25800
N1010       N  0.45738532  0.83069261  0.48403875    -0.33700
C1011       C  0.47445635  0.83130035  0.48606970     0.02500
C1012       C  0.47846351  0.84448635  0.49701838     0.08500
C1013       C  0.46270302  0.85167336  0.50140624    -0.04600
H1014       H  0.48340784  0.82311135  0.47938543     0.09200
H1015       H  0.46065519  0.86272186  0.50953258     0.10400
Cu1016     Cu  0.44534831  0.81499604  0.46652598     0.44200
Cu1017     Cu  0.42284030  0.84701406  0.49291981     0.42000
Cu1018     Cu  0.40214060  0.82275852  0.45832324     0.43900
N1019       N  0.43328146  0.80535750  0.44509509    -0.33200
N1020       N  0.41700861  0.80859960  0.44183017    -0.27500
C1021       C  0.41318293  0.80326493  0.42591117    -0.03600
C1022       C  0.42780424  0.79631338  0.41892870     0.08600
C1023       C  0.44035294  0.79788475  0.43133629     0.02400
H1024       H  0.40106094  0.80545770  0.41949007     0.10100
H1025       H  0.45385411  0.79511799  0.42998320     0.09200
N1026       N  0.38889935  0.83774361  0.47549486    -0.34700
N1027       N  0.39571942  0.84677994  0.48816391    -0.26900
C1028       C  0.38271858  0.85490850  0.49635630    -0.02100
C1029       C  0.36726717  0.85064452  0.48831085     0.06500
C1030       C  0.37181537  0.83979930  0.47523934     0.04600
H1031       H  0.38435024  0.86326986  0.50722599     0.09700
H1032       H  0.36331973  0.83383750  0.46609208     0.08500
N1033       N  0.64626924  0.86691687  0.49631314    -0.25800
N1034       N  0.63949424  0.88133411  0.49026333    -0.33700
C1035       C  0.62237575  0.88090027  0.49178269     0.02500
C1036       C  0.61775648  0.86553397  0.49911941     0.08500
C1037       C  0.63319074  0.85685834  0.50187587    -0.04600
H1038       H  0.61385519  0.89094275  0.48739093     0.09200
H1039       H  0.63473828  0.84412912  0.50722377     0.10400
Cu1040     Cu  0.65254632  0.90098321  0.47838612     0.44200
Cu1041     Cu  0.67336513  0.86217028  0.49579062     0.42000
Cu1042     Cu  0.69670854  0.89705114  0.47388959     0.43900
N1043       N  0.66634784  0.91770763  0.46336558    -0.33200
N1044       N  0.68306566  0.91619642  0.46156162    -0.27500
C1045       C  0.68842874  0.92751095  0.44968833    -0.03600
C1046       C  0.67430752  0.93649957  0.44384610     0.08600
C1047       C  0.66050697  0.93000035  0.45270632     0.02400
H1048       H  0.70142170  0.92849928  0.44508009     0.10100
H1049       H  0.64716686  0.93329778  0.45093299     0.09200
N1050       N  0.70845433  0.87592649  0.48489125    -0.34700
N1051       N  0.70067556  0.86292802  0.49263463    -0.26900
C1052       C  0.71292429  0.85141257  0.49735185    -0.02100
C1053       C  0.72889719  0.85765417  0.49227332     0.06500
C1054       C  0.72542149  0.87313375  0.48449284     0.04600
H1055       H  0.71041631  0.83937781  0.50383262     0.09700
H1056       H  0.73460138  0.88174614  0.47866833     0.08500
N1057       N  0.77912790  0.39931371  0.64590673    -0.25800
N1058       N  0.77115831  0.38655600  0.65380617    -0.33700
C1059       C  0.77297783  0.38811223  0.67082543     0.02500
C1060       C  0.78253761  0.40251373  0.67416756     0.08500
C1061       C  0.78630686  0.40944310  0.65811010    -0.04600
H1062       H  0.76766597  0.37929530  0.68013339     0.09200
H1063       H  0.79367181  0.42091901  0.65552437     0.10400
Cu1064     Cu  0.75791973  0.36699115  0.64217442     0.44200
Cu1065     Cu  0.77922977  0.40140730  0.61860826     0.42000
Cu1066     Cu  0.75260441  0.36793633  0.59772527     0.43900
N1067       N  0.74554564  0.34764161  0.62932734    -0.33200
N1068       N  0.74333337  0.34797325  0.61255847    -0.27500
C1069       C  0.73614073  0.33309957  0.60758849    -0.03600
C1070       C  0.73377421  0.32309064  0.62202641     0.08600
C1071       C  0.73985962  0.33261323  0.63558314     0.02400
H1072       H  0.73360140  0.32954797  0.59442617     0.10100
H1073       H  0.74080053  0.32866110  0.64886327     0.09200
N1074       N  0.76593184  0.38679083  0.58462255    -0.34700
N1075       N  0.77588480  0.39871730  0.59155914    -0.26900
C1076       C  0.78314479  0.40778967  0.57862352    -0.02100
C1077       C  0.77740203  0.40117237  0.56306177     0.06500
C1078       C  0.76656766  0.38796259  0.56745260     0.04600
H1079       H  0.79210947  0.41826008  0.58039398     0.09700
H1080       H  0.75984638  0.37947509  0.55874490     0.08500
N1081       N  0.80574007  0.40695177  0.84147276    -0.25800
N1082       N  0.82087569  0.41062485  0.83479406    -0.33700
C1083       C  0.81955386  0.41197978  0.81769227     0.02500
C1084       C  0.80284270  0.40905468  0.81300642     0.08500
C1085       C  0.79429617  0.40587294  0.82835949    -0.04600
H1086       H  0.83016167  0.41469984  0.80922594     0.09200
H1087       H  0.78084509  0.40289454  0.82984650     0.10400
Cu1088     Cu  0.84355691  0.41293254  0.84808371     0.44200
Cu1089     Cu  0.80242062  0.40356195  0.86849943     0.42000
Cu1090     Cu  0.84378563  0.40585902  0.89200823     0.43900
N1091       N  0.86595797  0.41238654  0.86202495    -0.33200
N1092       N  0.86617831  0.40953523  0.87869064    -0.27500
C1093       C  0.88251727  0.40909776  0.88424093    -0.03600
C1094       C  0.89291144  0.41181192  0.87024700     0.08600
C1095       C  0.88209395  0.41384827  0.85638473     0.02400
H1096       H  0.88646850  0.40675007  0.89734686     0.10100
H1097       H  0.88565702  0.41593010  0.84316502     0.09200
N1098       N  0.82034767  0.40240531  0.90351383    -0.34700
N1099       N  0.80523373  0.40146491  0.89575060    -0.26900
C1100       C  0.79318496  0.39924517  0.90805305    -0.02100
C1101       C  0.80130756  0.39880539  0.92401618     0.06500
C1102       C  0.81839397  0.40085733  0.92052068     0.04600
H1103       H  0.77958026  0.39811305  0.90559988     0.09700
H1104       H  0.82879698  0.40127089  0.92973827     0.08500
N1105       N  0.78889489  0.41168714  0.09006704    -0.25800
N1106       N  0.79427614  0.42536865  0.08155241    -0.33700
C1107       C  0.79494590  0.42202538  0.06474495     0.02500
C1108       C  0.78979041  0.40541618  0.06210653     0.08500
C1109       C  0.78597453  0.39905979  0.07842668    -0.04600
H1110       H  0.79849094  0.43131659  0.05502022     0.09200
H1111       H  0.78115874  0.38639382  0.08152269     0.10400
Cu1112     Cu  0.79890031  0.44905155  0.09181459     0.44200
Cu1113     Cu  0.78566519  0.41265553  0.11729738     0.42000
Cu1114     Cu  0.79035769  0.45734993  0.13462200     0.43900
N1115       N  0.79854141  0.47355877  0.10113271    -0.33200
N1116       N  0.79497793  0.47702990  0.11725373    -0.27500
C1117       C  0.79394753  0.49419776  0.11910464    -0.03600
C1118       C  0.79702358  0.50161789  0.10328349     0.08600
C1119       C  0.79986182  0.48823558  0.09219660     0.02400
H1120       H  0.79059697  0.50068455  0.13083822     0.10100
H1121       H  0.80196295  0.48903201  0.07854665     0.09200
N1122       N  0.78604549  0.43556624  0.14944527    -0.34700
N1123       N  0.78429836  0.41958408  0.14382797    -0.26900
C1124       C  0.78182181  0.40927099  0.15765350    -0.02100
C1125       C  0.78204157  0.41929405  0.17241112     0.06500
C1126       C  0.78474709  0.43578524  0.16662584     0.04600
H1127       H  0.78007880  0.39549059  0.15703666     0.09700
H1128       H  0.78579598  0.44723304  0.17438892     0.08500
N1129       N  0.77487014  0.42070251  0.39578715    -0.25800
N1130       N  0.76213056  0.42889572  0.40338638    -0.33700
C1131       C  0.76403634  0.42809269  0.42046219     0.02500
C1132       C  0.77863306  0.41899281  0.42421512     0.08500
C1133       C  0.78530858  0.41439999  0.40830132    -0.04600
H1134       H  0.75530023  0.43379235  0.42954510     0.09200
H1135       H  0.79681769  0.40702521  0.40602706     0.10400
Cu1136     Cu  0.74228007  0.44163517  0.39148928     0.44200
Cu1137     Cu  0.77659738  0.41906701  0.36838667     0.42000
Cu1138     Cu  0.74470947  0.44730044  0.34753703     0.43900
N1139       N  0.72443372  0.45603342  0.37837118    -0.33200
N1140       N  0.72557803  0.45853740  0.36169774    -0.27500
C1141       C  0.71230652  0.46821421  0.35639960    -0.03600
C1142       C  0.70246969  0.47194515  0.37054337     0.08600
C1143       C  0.71041995  0.46404378  0.38427603     0.02400
H1144       H  0.70985449  0.47193038  0.34325412     0.10100
H1145       H  0.70627182  0.46393115  0.39746901     0.09200
N1146       N  0.76173569  0.43211623  0.33436521    -0.34700
N1147       N  0.77313080  0.42142851  0.34115942    -0.26900
C1148       C  0.78084006  0.41303335  0.32804823    -0.02100
C1149       C  0.77383333  0.41885829  0.31257790     0.06500
C1150       C  0.76187782  0.43087560  0.31722015     0.04600
H1151       H  0.79063149  0.40329129  0.32963258     0.09700
H1152       H  0.75350132  0.43805369  0.30869467     0.08500
C1153       C  0.77777401  0.41094732  0.26080918     0.18500
C1154       C  0.76636052  0.42134942  0.25143672    -0.10600
C1155       C  0.76655505  0.42142374  0.23341889    -0.11500
C1156       C  0.77815562  0.41107071  0.22442875     0.20000
C1157       C  0.78935956  0.40042354  0.23378552    -0.13500
C1158       C  0.78916679  0.40035110  0.25183165    -0.11800
C1159       C  0.77910358  0.41208644  0.20575437     0.01000
C1160       C  0.78022934  0.41426801  0.19032754    -0.31800
C1161       C  0.77801615  0.41167256  0.27951790     0.02400
C1162       C  0.77719426  0.41378778  0.29495700    -0.33500
H1163       H  0.75745017  0.42963214  0.25807178     0.13400
H1164       H  0.75783230  0.42978092  0.22650579     0.13300
H1165       H  0.79845812  0.39236528  0.22713695     0.13100
H1166       H  0.79807890  0.39222081  0.25876710     0.12100
C1167       C  0.78758734  0.39441892  0.01121627     0.18500
C1168       C  0.79538605  0.38086435  0.00235506    -0.10600
C1169       C  0.79623413  0.38111729  0.98434376    -0.11500
C1170       C  0.78931019  0.39491866  0.97494105     0.20000
C1171       C  0.78142141  0.40839106  0.98381235    -0.13500
C1172       C  0.78056725  0.40813452  0.00178861    -0.11800
C1173       C  0.79118464  0.39576352  0.95637438     0.01000
C1174       C  0.79432358  0.39693512  0.94115844    -0.31800
C1175       C  0.78756960  0.39494503  0.02989620     0.02400
C1176       C  0.78805978  0.39779229  0.04521230    -0.33500
H1177       H  0.80103798  0.37024457  0.00935629     0.13400
H1178       H  0.80254092  0.37066241  0.97776650     0.13300
H1179       H  0.77616046  0.41923948  0.97685343     0.13100
H1180       H  0.77464707  0.41881665  0.00836703     0.12100
C1181       C  0.78709575  0.41166887  0.47551137     0.18500
C1182       C  0.79490257  0.42421520  0.48583541    -0.10600
C1183       C  0.79414961  0.42304950  0.50382910    -0.11500
C1184       C  0.78553228  0.40933250  0.51173994     0.20000
C1185       C  0.77787105  0.39674477  0.50140069    -0.13500
C1186       C  0.77862652  0.39790492  0.48345648    -0.11800
C1187       C  0.78414115  0.40818619  0.53034284     0.01000
C1188       C  0.78186259  0.40598577  0.54561147    -0.31800
C1189       C  0.78674383  0.41337092  0.45688613     0.02400
C1190       C  0.78455269  0.41524855  0.44153759    -0.33500
H1191       H  0.80137934  0.43504788  0.47997960     0.13400
H1192       H  0.80010966  0.43291955  0.51153700     0.13300
H1193       H  0.77111134  0.38606850  0.50722644     0.13100
H1194       H  0.77238496  0.38818278  0.47577672     0.12100
C1195       C  0.79254083  0.41034040  0.76142611     0.18500
C1196       C  0.80606235  0.41688341  0.75152341    -0.10600
C1197       C  0.80491796  0.41719298  0.73353315    -0.11500
C1198       C  0.79022027  0.41098030  0.72519423     0.20000
C1199       C  0.77667077  0.40455072  0.73510496    -0.13500
C1200       C  0.77781705  0.40423516  0.75307558    -0.11800
C1201       C  0.78914759  0.41045856  0.70656234     0.01000
C1202       C  0.78707319  0.40827426  0.69127472    -0.31800
C1203       C  0.79400436  0.40958985  0.78004241     0.02400
C1204       C  0.79662535  0.40909166  0.79541575    -0.33500
H1205       H  0.81756706  0.42161473  0.75770713     0.13400
H1206       H  0.81556046  0.42211550  0.72614307     0.13300
H1207       H  0.76525776  0.39960112  0.72892255     0.13100
H1208       H  0.76726315  0.39908819  0.76044510     0.12100
C1209       C  0.56613896  0.85606392  0.50354222     0.18500
C1210       C  0.55791451  0.84248870  0.49505815    -0.10600
C1211       C  0.53994980  0.84125143  0.49492123    -0.11500
C1212       C  0.52986673  0.85359314  0.50325209     0.20000
C1213       C  0.53807599  0.86717491  0.51176530    -0.13500
C1214       C  0.55606820  0.86841377  0.51190233    -0.11800
C1215       C  0.51120830  0.85226199  0.50276648     0.01000
C1216       C  0.49586819  0.84983949  0.50117383    -0.31800
C1217       C  0.58477107  0.85769161  0.50311176     0.02400
C1218       C  0.60014127  0.86009614  0.50195895    -0.33500
H1219       H  0.56539866  0.83287347  0.48840946     0.13400
H1220       H  0.53391829  0.83070791  0.48823357     0.13300
H1221       H  0.53056882  0.87688877  0.51824119     0.13100
H1222       H  0.56210881  0.87905767  0.51841731     0.12100
C1223       C  0.81565902  0.83906891  0.49057712     0.18500
C1224       C  0.80778633  0.85360508  0.48332731    -0.10600
C1225       C  0.78994502  0.85586824  0.48435663    -0.11500
C1226       C  0.77961137  0.84364988  0.49264472     0.20000
C1227       C  0.78745288  0.82904754  0.49982999    -0.13500
C1228       C  0.80532296  0.82678002  0.49879709    -0.11800
C1229       C  0.76110573  0.84632843  0.49375672     0.01000
C1230       C  0.74596614  0.85017724  0.49384693    -0.31800
C1231       C  0.83423236  0.83676474  0.48960891     0.02400
C1232       C  0.84962225  0.83412002  0.48906245    -0.33500
H1233       H  0.81544355  0.86323815  0.47690047     0.13400
H1234       H  0.78420052  0.86722993  0.47870022     0.13300
H1235       H  0.77978111  0.81943734  0.50626939     0.13100
H1236       H  0.81108548  0.81543371  0.50446368     0.12100
C1237       C  0.31589033  0.86153886  0.49227532     0.18500
C1238       C  0.30623875  0.86146938  0.50741237    -0.10600
C1239       C  0.28831906  0.86338470  0.50679542    -0.11500
C1240       C  0.27971211  0.86542502  0.49104533     0.20000
C1241       C  0.28937068  0.86554380  0.47591422    -0.13500
C1242       C  0.30729070  0.86360342  0.47652833    -0.11800
C1243       C  0.26106272  0.86727245  0.49058060     0.01000
C1244       C  0.24553508  0.86823579  0.49195837    -0.31800
C1245       C  0.33445092  0.85901710  0.49274619     0.02400
C1246       C  0.34975276  0.85601962  0.49189626    -0.33500
H1247       H  0.31254308  0.85987331  0.51970331     0.13400
H1248       H  0.28116262  0.86329157  0.51865172     0.13300
H1249       H  0.28306224  0.86713926  0.46362409     0.13100
H1250       H  0.31444643  0.86368172  0.46467454     0.12100
C1251       C  0.06431385  0.86247954  0.48226227     0.18500
C1252       C  0.05535115  0.86299211  0.46660991    -0.10600
C1253       C  0.03758359  0.85982201  0.46602310    -0.11500
C1254       C  0.02845134  0.85611259  0.48107875     0.20000
C1255       C  0.03741975  0.85564941  0.49672343    -0.13500
C1256       C  0.05515939  0.85881494  0.49730965    -0.11800
C1257       C  0.01012782  0.85213754  0.48043537     0.01000
C1258       C  0.99517810  0.84757840  0.47995599    -0.31800
C1259       C  0.08282601  0.86542834  0.48306583     0.02400
C1260       C  0.09813609  0.86732959  0.48566072    -0.33500
H1261       H  0.06210412  0.86574016  0.45482273     0.13400
H1262       H  0.03099508  0.86013920  0.45378677     0.13300
H1263       H  0.03072019  0.85270513  0.50849727     0.13100
H1264       H  0.06176708  0.85829574  0.50953291     0.12100
C1265       C  0.17170306  0.76970411  0.57069284     0.18500
C1266       C  0.18098534  0.76451668  0.55630121    -0.10600
C1267       C  0.18644815  0.74754145  0.55482320    -0.11500
C1268       C  0.18264785  0.73562981  0.56771054     0.20000
C1269       C  0.17295935  0.74066518  0.58192109    -0.13500
C1270       C  0.16747632  0.75771717  0.58340907    -0.11800
C1271       C  0.18992307  0.71871103  0.56685932     0.01000
C1272       C  0.19763743  0.70535707  0.56598677    -0.31800
C1273       C  0.16759989  0.78757534  0.57254945     0.02400
C1274       C  0.16629158  0.80295919  0.57180586    -0.33500
H1275       H  0.18437344  0.77370295  0.54643751     0.13400
H1276       H  0.19403505  0.74381384  0.54384600     0.13300
H1277       H  0.17005489  0.73156246  0.59200895     0.13100
H1278       H  0.16034699  0.76162716  0.59461985     0.12100
C1279       C  0.27739803  0.61215533  0.70877040     0.18500
C1280       C  0.26971307  0.62631871  0.70064177    -0.10600
C1281       C  0.26998867  0.62797911  0.68269882    -0.11500
C1282       C  0.27800783  0.61551529  0.67252510     0.20000
C1283       C  0.28572198  0.60133552  0.68062844    -0.13500
C1284       C  0.28545127  0.59967573  0.69861019    -0.11800
C1285       C  0.27796674  0.61731581  0.65387723     0.01000
C1286       C  0.27656190  0.61993215  0.63852850    -0.31800
C1287       C  0.27769464  0.61091624  0.72746809     0.02400
C1288       C  0.27923724  0.61092457  0.74302096    -0.33500
H1289       H  0.26355052  0.63619717  0.70820467     0.13400
H1290       H  0.26395071  0.63900058  0.67676060     0.13300
H1291       H  0.29198090  0.59153570  0.67304937     0.13100
H1292       H  0.29159116  0.58872819  0.70457757     0.12100
C1293       C  0.29125117  0.62542073  0.45918309     0.18500
C1294       C  0.28320233  0.63743581  0.44834625    -0.10600
C1295       C  0.28455352  0.63608821  0.43044401    -0.11500
C1296       C  0.29399998  0.62270502  0.42307260     0.20000
C1297       C  0.30231770  0.61086262  0.43390614    -0.13500
C1298       C  0.30096022  0.61220800  0.45182429    -0.11800
C1299       C  0.29435985  0.62051911  0.40451873     0.01000
C1300       C  0.29403074  0.61728580  0.38927239    -0.31800
C1301       C  0.28895233  0.62640887  0.47770378     0.02400
C1302       C  0.28568028  0.62807890  0.49284711    -0.33500
H1303       H  0.27562289  0.64772488  0.45373835     0.13400
H1304       H  0.27797386  0.64531530  0.42235667     0.13300
H1305       H  0.30961705  0.60038347  0.42849640     0.13100
H1306       H  0.30725718  0.60278626  0.45991301     0.12100
C1307       C  0.27273842  0.61383932  0.92433087     0.18500
C1308       C  0.25849657  0.61045595  0.93472459    -0.10600
C1309       C  0.26014325  0.61047384  0.95268816    -0.11500
C1310       C  0.27602016  0.61391981  0.96051186     0.20000
C1311       C  0.29016709  0.61762096  0.95011886    -0.13500
C1312       C  0.28852719  0.61758457  0.93218437    -0.11800
C1313       C  0.27798473  0.61273994  0.97905939     0.01000
C1314       C  0.27948142  0.60989333  0.99432582    -0.31800
C1315       C  0.27156442  0.61293526  0.90569216     0.02400
C1316       C  0.27314703  0.61219587  0.89020366    -0.33500
H1317       H  0.24620710  0.60755308  0.92896776     0.13400
H1318       H  0.24905363  0.60756964  0.96048357     0.13300
H1319       H  0.30252544  0.62026450  0.95586086     0.13100
H1320       H  0.29969726  0.62022889  0.92440816     0.12100
C1321       C  0.29415977  0.61828664  0.20900554     0.18500
C1322       C  0.30782104  0.62429199  0.19897974    -0.10600
C1323       C  0.30739763  0.62261775  0.18102693    -0.11500
C1324       C  0.29330825  0.61489810  0.17285474     0.20000
C1325       C  0.27954865  0.60916913  0.18287550    -0.13500
C1326       C  0.27997099  0.61084015  0.20078860    -0.11800
C1327       C  0.29322410  0.61196285  0.15440478     0.01000
C1328       C  0.29264653  0.60798222  0.13934495    -0.31800
C1329       C  0.29516332  0.61849374  0.22766922     0.02400
C1330       C  0.29612751  0.61654888  0.24312249    -0.33500
H1331       H  0.31896966  0.62993761  0.20505648     0.13400
H1332       H  0.31819842  0.62703871  0.17356692     0.13300
H1333       H  0.26859821  0.60308063  0.17686096     0.13100
H1334       H  0.26936827  0.60597313  0.20826315     0.12100
C1335       C  0.59894714  0.29789092  0.93976734     0.18500
C1336       C  0.60696934  0.29017497  0.92568260    -0.10600
C1337       C  0.62494029  0.28877657  0.92506847    -0.11500
C1338       C  0.63519790  0.29507858  0.93851131     0.20000
C1339       C  0.62715996  0.30266584  0.95264298    -0.13500
C1340       C  0.60920870  0.30405962  0.95325814    -0.11800
C1341       C  0.65386125  0.29378275  0.93774428     0.01000
C1342       C  0.66932076  0.29215520  0.93634133    -0.31800
C1343       C  0.58032978  0.29982923  0.94040868     0.02400
C1344       C  0.56509253  0.30257838  0.94237717    -0.33500
H1345       H  0.59935584  0.28532165  0.91512861     0.13400
H1346       H  0.63084231  0.28283294  0.91404305     0.13300
H1347       H  0.63476706  0.30758290  0.96317285     0.13100
H1348       H  0.60332316  0.31006328  0.96426186     0.12100
C1349       C  0.25894495  0.46046370  0.05794667     0.18500
C1350       C  0.24196010  0.45525830  0.05525451    -0.10600
C1351       C  0.23834904  0.43831174  0.05052528    -0.11500
C1352       C  0.25170528  0.42649409  0.04846395     0.20000
C1353       C  0.26867316  0.43167839  0.05126032    -0.13500
C1354       C  0.27228103  0.44861069  0.05598390    -0.11800
C1355       C  0.24815694  0.40925988  0.04281184     0.01000
C1356       C  0.24602727  0.39499395  0.03721969    -0.31800
C1357       C  0.26275785  0.47810315  0.06198456     0.02400
C1358       C  0.26607360  0.49304572  0.06434118    -0.33500
H1359       H  0.23155165  0.46433529  0.05660897     0.13400
H1360       H  0.22518924  0.43448634  0.04828405     0.13300
H1361       H  0.27911305  0.42269267  0.04959058     0.13100
H1362       H  0.28547075  0.45250852  0.05790339     0.12100
C1363       C  0.38413601  0.30959274  0.94718406     0.18500
C1364       C  0.37475677  0.32409487  0.94190965    -0.10600
C1365       C  0.35678414  0.32439683  0.94323828    -0.11500
C1366       C  0.34785630  0.31020017  0.94987107     0.20000
C1367       C  0.35722799  0.29566003  0.95504231    -0.13500
C1368       C  0.37519974  0.29535819  0.95371421    -0.11800
C1369       C  0.32929578  0.31091497  0.95222341     0.01000
C1370       C  0.31410021  0.31227555  0.95549247    -0.31800
C1371       C  0.40286299  0.30971157  0.94685762     0.02400
C1372       C  0.41841225  0.31049613  0.94815125    -0.33500
H1373       H  0.38135635  0.33530084  0.93700010     0.13400
H1374       H  0.34987465  0.33582132  0.93931970     0.13300
H1375       H  0.35066301  0.28461790  0.96035216     0.13100
H1376       H  0.38214346  0.28409895  0.95803303     0.12100
C1377       C  0.88468447  0.29582045  0.96237949     0.18500
C1378       C  0.87690478  0.30352235  0.94801747    -0.10600
C1379       C  0.85895578  0.30451667  0.94669132    -0.11500
C1380       C  0.84848078  0.29783514  0.95969546     0.20000
C1381       C  0.85626509  0.29032782  0.97415630    -0.13500
C1382       C  0.87421284  0.28933663  0.97548390    -0.11800
C1383       C  0.82989429  0.29749234  0.95757726     0.01000
C1384       C  0.81470320  0.29553855  0.95456027    -0.31800
C1385       C  0.90324706  0.29365240  0.96322405     0.02400
C1386       C  0.91848677  0.29032329  0.96362156    -0.33500
H1387       H  0.88469637  0.30847200  0.93768883     0.13400
H1388       H  0.85324119  0.31019617  0.93532310     0.13300
H1389       H  0.84846609  0.28491997  0.98424947     0.13100
H1390       H  0.87991834  0.28319992  0.98661878     0.12100
C1391       C  0.13415730  0.30308443  0.96018542     0.18500
C1392       C  0.12682692  0.29164719  0.94836142    -0.10600
C1393       C  0.10895795  0.28925274  0.94769295    -0.11500
C1394       C  0.09809985  0.29826224  0.95883097     0.20000
C1395       C  0.10542264  0.30981819  0.97053060    -0.13500
C1396       C  0.12327828  0.31221296  0.97119669    -0.11800
C1397       C  0.07962028  0.29519325  0.95860611     0.01000
C1398       C  0.06445745  0.29144940  0.95833663    -0.31800
C1399       C  0.15273191  0.30532205  0.96132796     0.02400
C1400       C  0.16800376  0.30789454  0.96345286    -0.33500
H1401       H  0.13493096  0.28445154  0.93973537     0.13400
H1402       H  0.10362729  0.28023772  0.93859179     0.13300
H1403       H  0.09733894  0.31688162  0.97928350     0.13100
H1404       H  0.12861391  0.32109704  0.98042440     0.12100
C1405       C  0.97248790  0.42128685  0.84030788     0.18500
C1406       C  0.96306642  0.40629163  0.83726648    -0.10600
C1407       C  0.94839876  0.40286344  0.84681676    -0.11500
C1408       C  0.94311211  0.41438137  0.85945113     0.20000
C1409       C  0.95303434  0.42891541  0.86313419    -0.13500
C1410       C  0.96773464  0.43235958  0.85355028    -0.11800
C1411       C  0.92628308  0.41267305  0.86653851     0.01000
C1412       C  0.91123312  0.41198385  0.86966698    -0.31800
C1413       C  0.98549543  0.42619788  0.82833616     0.02400
C1414       C  0.99451615  0.42953397  0.81632854    -0.33500
H1415       H  0.96653960  0.39775913  0.82695863     0.13400
H1416       H  0.94066591  0.39169793  0.84370243     0.13300
H1417       H  0.94892467  0.43799352  0.87271148     0.13100
H1418       H  0.97487355  0.44409260  0.85588624     0.12100
C1419       C  0.98317766  0.19053302  0.87172420     0.18500
C1420       C  0.98919325  0.17524806  0.86453591    -0.10600
C1421       C  0.99153230  0.17412173  0.84683026    -0.11500
C1422       C  0.98789089  0.18826951  0.83629323     0.20000
C1423       C  0.98134668  0.20336411  0.84342239    -0.13500
C1424       C  0.97899103  0.20448317  0.86111453    -0.11800
C1425       C  0.99227326  0.18780215  0.81845937     0.01000
C1426       C  0.99731847  0.18767042  0.80391741    -0.31800
C1427       C  0.98303019  0.19267315  0.88998896     0.02400
C1428       C  0.98428022  0.19661946  0.90483773    -0.33500
H1429       H  0.99262860  0.16446885  0.87263859     0.13400
H1430       H  0.99672668  0.16242724  0.84142720     0.13300
H1431       H  0.97862167  0.21440728  0.83540515     0.13100
H1432       H  0.97449300  0.21643710  0.86658362     0.12100
C1433       C  0.05181619  0.33299789  0.70392172     0.18500
C1434       C  0.05750655  0.32371689  0.71832924    -0.10600
C1435       C  0.05899140  0.30573741  0.71776215    -0.11500
C1436       C  0.05481508  0.29669568  0.70276780     0.20000
C1437       C  0.04933350  0.30598224  0.68827733    -0.13500
C1438       C  0.04784633  0.32399385  0.68884519    -0.11800
C1439       C  0.05510557  0.27794118  0.70274022     0.01000
C1440       C  0.05409613  0.26241036  0.70436456    -0.31800
C1441       C  0.04926251  0.35154053  0.70502808     0.02400
C1442       C  0.04637050  0.36667789  0.70762982    -0.33500
H1443       H  0.06052839  0.33036192  0.73014193     0.13400
H1444       H  0.06309954  0.29885875  0.72914032     0.13300
H1445       H  0.04589993  0.29927821  0.67661277     0.13100
H1446       H  0.04332392  0.33085416  0.67761651     0.12100
C1447       C  0.95923211  0.72389157  0.54953170     0.18500
C1448       C  0.96718886  0.73496684  0.56121572    -0.10600
C1449       C  0.97394017  0.72852650  0.57653610    -0.11500
C1450       C  0.97277673  0.71096522  0.58024425     0.20000
C1451       C  0.96519171  0.69979810  0.56839182    -0.13500
C1452       C  0.95842122  0.70625559  0.55303211    -0.11800
C1453       C  0.97846024  0.70472005  0.59665111     0.01000
C1454       C  0.98260518  0.70062499  0.61096915    -0.31800
C1455       C  0.95140391  0.73092220  0.53435062     0.02400
C1456       C  0.94513861  0.73861174  0.52246218    -0.33500
H1457       H  0.96787894  0.74863629  0.55862593     0.13400
H1458       H  0.97972859  0.73726918  0.58563452     0.13300
H1459       H  0.96419368  0.68619169  0.57118036     0.13100
H1460       H  0.95229836  0.69759447  0.54407927     0.12100
C1461       C  0.04101545  0.54706956  0.71199034     0.18500
C1462       C  0.03965370  0.55578968  0.69627242    -0.10600
C1463       C  0.03921326  0.57383960  0.69573548    -0.11500
C1464       C  0.04011593  0.58346024  0.71092384     0.20000
C1465       C  0.04170402  0.57474711  0.72662098    -0.13500
C1466       C  0.04215065  0.55669941  0.72715734    -0.11800
C1467       C  0.03878270  0.60213887  0.71032002     0.01000
C1468       C  0.03682807  0.61755177  0.70855594    -0.31800
C1469       C  0.04053864  0.52834917  0.71274585     0.02400
C1470       C  0.03928978  0.51288347  0.71470710    -0.33500
H1471       H  0.03869642  0.54863012  0.68440361     0.13400
H1472       H  0.03793895  0.58028004  0.68350042     0.13300
H1473       H  0.04237447  0.58190072  0.73851142     0.13100
H1474       H  0.04314410  0.55025523  0.73941540     0.12100
C1475       C  0.05164681  0.08117013  0.69857374     0.18500
C1476       C  0.06687168  0.07188687  0.70109308    -0.10600
C1477       C  0.06652543  0.05390689  0.70272950    -0.11500
C1478       C  0.05095762  0.04490868  0.70189013     0.20000
C1479       C  0.03576484  0.05414593  0.69898559    -0.13500
C1480       C  0.03611212  0.07213806  0.69734289    -0.11800
C1481       C  0.05051877  0.02648366  0.70527617     0.01000
C1482       C  0.05077885  0.01152001  0.70981778    -0.31800
C1483       C  0.05177915  0.09990384  0.69875967     0.02400
C1484       C  0.05121699  0.11535817  0.70097479    -0.33500
H1485       H  0.07896906  0.07857693  0.70224886     0.13400
H1486       H  0.07839182  0.04705708  0.70509640     0.13300
H1487       H  0.02360443  0.04749953  0.69842444     0.13100
H1488       H  0.02418066  0.07904583  0.69556607     0.12100
C1489       C  0.03050630  0.79687203  0.71994656     0.18500
C1490       C  0.02351702  0.80661720  0.73330507    -0.10600
C1491       C  0.02583113  0.82451278  0.73376723    -0.11500
C1492       C  0.03510646  0.83295376  0.72086643     0.20000
C1493       C  0.04200047  0.82322412  0.70744705    -0.13500
C1494       C  0.03968464  0.80532588  0.70698427    -0.11800
C1495       C  0.03801817  0.85142034  0.72177581     0.01000
C1496       C  0.04094427  0.86662843  0.72377348    -0.31800
C1497       C  0.02793812  0.77834216  0.71928852     0.02400
C1498       C  0.02516318  0.76305323  0.71772630    -0.33500
H1499       H  0.01631173  0.80039510  0.74336459     0.13400
H1500       H  0.02044185  0.83177032  0.74428475     0.13300
H1501       H  0.04923421  0.82944340  0.69740710     0.13100
H1502       H  0.04510118  0.79806192  0.69648547     0.19300
C1503       C  0.65686995  0.49724192  0.36955066     0.18500
C1504       C  0.64318075  0.48902089  0.36136182    -0.10600
C1505       C  0.62739995  0.49729592  0.35980530    -0.11500
C1506       C  0.62521029  0.51383669  0.36643598     0.20000
C1507       C  0.63884313  0.52203228  0.37478899    -0.13500
C1508       C  0.65467232  0.51372232  0.37636509    -0.11800
C1509       C  0.60921163  0.52252045  0.36359202     0.01000
C1510       C  0.59563442  0.52813577  0.35881571    -0.31800
C1511       C  0.67321292  0.48883147  0.37053752     0.02400
C1512       C  0.68668076  0.48131657  0.37074900    -0.33500
H1513       H  0.64476589  0.47629959  0.35600549     0.13400
H1514       H  0.61697906  0.49091039  0.35319884     0.13300
H1515       H  0.63731412  0.53488339  0.37983656     0.13100
H1516       H  0.66521212  0.52019270  0.38268189     0.12100
C1517       C  0.44333835  0.78733879  0.33308171     0.18500
C1518       C  0.42670484  0.78426771  0.33897842    -0.10600
C1519       C  0.42324524  0.78502695  0.35653662    -0.11500
C1520       C  0.43641732  0.78881873  0.36818734     0.20000
C1521       C  0.45302890  0.79186580  0.36225661    -0.13500
C1522       C  0.45647730  0.79111602  0.34474977    -0.11800
C1523       C  0.43289510  0.79015000  0.38617663     0.01000
C1524       C  0.43040545  0.79227748  0.40122827    -0.31800
C1525       C  0.44723975  0.78653401  0.31514720     0.02400
C1526       C  0.45276612  0.78607708  0.30079305    -0.33500
H1527       H  0.41647007  0.78132777  0.33004862     0.13400
H1528       H  0.41032879  0.78274252  0.36101337     0.13300
H1529       H  0.46327578  0.79489689  0.37114853     0.13100
H1530       H  0.46938997  0.79350102  0.34030174     0.12100
C1531       C  0.54585196  0.64115714  0.25032094     0.18500
C1532       C  0.53869774  0.65262301  0.26212146    -0.10600
C1533       C  0.53953928  0.67039956  0.25929624    -0.11500
C1534       C  0.54757503  0.67705130  0.24466442     0.20000
C1535       C  0.55465082  0.66560103  0.23275334    -0.13500
C1536       C  0.55381693  0.64775368  0.23559594    -0.11800
C1537       C  0.54800314  0.69556540  0.24192980     0.01000
C1538       C  0.54625687  0.71106639  0.24111928    -0.31800
C1539       C  0.54544039  0.62278337  0.25381125     0.02400
C1540       C  0.54534393  0.60784561  0.25837679    -0.33500
H1541       H  0.53255343  0.64782769  0.27356298     0.13400
H1542       H  0.53388975  0.67900702  0.26860532     0.13300
H1543       H  0.56080118  0.67044107  0.22133799     0.13100
H1544       H  0.55947375  0.63910650  0.22633649     0.12100
C1545       C  0.51702970  0.32343307  0.08278488     0.18500
C1546       C  0.53118653  0.33265568  0.08885330    -0.10600
C1547       C  0.53997416  0.32704111  0.10344740    -0.11500
C1548       C  0.53467721  0.31214642  0.11199587     0.20000
C1549       C  0.52040808  0.30299065  0.10604513    -0.13500
C1550       C  0.51161038  0.30860908  0.09141343    -0.11800
C1551       C  0.54370621  0.30654907  0.12707281     0.01000
C1552       C  0.55097340  0.30286016  0.14020609    -0.31800
C1553       C  0.50898658  0.32855964  0.06700673     0.02400
C1554       C  0.50411813  0.33242497  0.05286423    -0.33500
H1555       H  0.53556493  0.34403701  0.08216869     0.13400
H1556       H  0.55094554  0.33425164  0.10801016     0.13300
H1557       H  0.51617124  0.29150301  0.11263593     0.13100
H1558       H  0.50076552  0.30130081  0.08671262     0.12100
C1559       C  0.54157425  0.42880422  0.26266289     0.18500
C1560       C  0.53614467  0.41884636  0.27667210    -0.10600
C1561       C  0.53809857  0.40091497  0.27657308    -0.11500
C1562       C  0.54553427  0.39272389  0.26247494     0.20000
C1563       C  0.55085353  0.40267831  0.24842056    -0.13500
C1564       C  0.54890502  0.42059798  0.24852164    -0.11800
C1565       C  0.54776349  0.37419280  0.26216079     0.01000
C1566       C  0.55032114  0.35906410  0.25948069    -0.31800
C1567       C  0.54019093  0.44740514  0.26323009     0.02400
C1568       C  0.53939906  0.46278856  0.26554743    -0.33500
H1569       H  0.53053140  0.42495866  0.28773123     0.13400
H1570       H  0.53388164  0.39346245  0.28753254     0.13300
H1571       H  0.55658918  0.39658688  0.23741116     0.13100
H1572       H  0.55324934  0.42805639  0.23761609     0.12100
C1573       C  0.55365115  0.89199526  0.23932887     0.18500
C1574       C  0.56559667  0.90042002  0.24986547    -0.10600
C1575       C  0.56677469  0.91846216  0.24980877    -0.11500
C1576       C  0.55602139  0.92838965  0.23919822     0.20000
C1577       C  0.54409723  0.91995475  0.22865355    -0.13500
C1578       C  0.54292129  0.90192707  0.22870872    -0.11800
C1579       C  0.55651997  0.94713688  0.23988966     0.01000
C1580       C  0.55576055  0.96263586  0.24185933    -0.31800
C1581       C  0.55182410  0.87332245  0.23986801     0.02400
C1582       C  0.54879516  0.85798625  0.24062558    -0.33500
H1583       H  0.57390515  0.89304641  0.25829979     0.13400
H1584       H  0.57591635  0.92466621  0.25819478     0.13300
H1585       H  0.53551406  0.92733662  0.22050625     0.13100
H1586       H  0.53350776  0.89574867  0.22060756     0.12100
C1587       C  0.56303664  0.18016160  0.24590324     0.18500
C1588       C  0.57675914  0.16981008  0.25140167    -0.10600
C1589       C  0.57548440  0.15178849  0.25083948    -0.11500
C1590       C  0.56051380  0.14385602  0.24470837     0.20000
C1591       C  0.54681601  0.15423093  0.23922056    -0.13500
C1592       C  0.54808542  0.17221868  0.23978826    -0.11800
C1593       C  0.55886221  0.12518469  0.24455093     0.01000
C1594       C  0.55613540  0.10979927  0.24521264    -0.31800
C1595       C  0.56440315  0.19883975  0.24592123     0.02400
C1596       C  0.56522509  0.21437983  0.24446106    -0.33500
H1597       H  0.58843827  0.17565039  0.25607498     0.13400
H1598       H  0.58619064  0.14403938  0.25523274     0.13300
H1599       H  0.53512473  0.14841563  0.23453636     0.13100
H1600       H  0.53736810  0.17995145  0.23539053     0.12100
C1601       C  0.79468010  0.55019396  0.08440989     0.18500
C1602       C  0.80404270  0.55263641  0.06934261    -0.10600
C1603       C  0.80417091  0.56867265  0.06130745    -0.11500
C1604       C  0.79493464  0.58235029  0.06829396     0.20000
C1605       C  0.78532777  0.57987230  0.08321065    -0.13500
C1606       C  0.78519796  0.56378872  0.09126757    -0.11800
C1607       C  0.79563333  0.59887415  0.06011182     0.01000
C1608       C  0.79721196  0.61194937  0.05201237    -0.31800
C1609       C  0.79496317  0.53370700  0.09272977     0.02400
C1610       C  0.79576641  0.51936706  0.09849841    -0.33500
H1611       H  0.81134225  0.54217806  0.06388345     0.13400
H1612       H  0.81157804  0.57044890  0.04973682     0.13300
H1613       H  0.77808385  0.59036656  0.08866144     0.13100
H1614       H  0.77784157  0.56198927  0.10286385     0.12100
C1615       C  0.94275991  0.65731650  0.94261194     0.18500
C1616       C  0.93503665  0.67332062  0.94565475    -0.10600
C1617       C  0.91706983  0.67488701  0.94634440    -0.11500
C1618       C  0.90647709  0.66047511  0.94400946     0.20000
C1619       C  0.91420854  0.64450937  0.94082129    -0.13500
C1620       C  0.93216016  0.64294431  0.94013194    -0.11800
C1621       C  0.88785908  0.66180431  0.94590129     0.01000
C1622       C  0.87255376  0.66211982  0.94903248    -0.31800
C1623       C  0.96142438  0.65541040  0.94302243     0.02400
C1624       C  0.97679828  0.65322970  0.94494542    -0.33500
H1625       H  0.94291200  0.68457488  0.94777471     0.13400
H1626       H  0.91145785  0.68730482  0.94898311     0.13300
H1627       H  0.90635518  0.63316393  0.93914159     0.13100
H1628       H  0.93777624  0.63043941  0.93793363     0.12100
C1629       C  0.69220481  0.68089989  0.96186396     0.18500
C1630       C  0.68399505  0.69513745  0.95437600    -0.10600
C1631       C  0.66605753  0.69685485  0.95508330    -0.11500
C1632       C  0.65595385  0.68439247  0.96331315     0.20000
C1633       C  0.66416191  0.67019698  0.97090315    -0.13500
C1634       C  0.68211535  0.66847937  0.97019680    -0.11800
C1635       C  0.63727932  0.68619396  0.96372704     0.01000
C1636       C  0.62185252  0.68872364  0.96315807    -0.31800
C1637       C  0.71089445  0.67923312  0.96141223     0.02400
C1638       C  0.72642930  0.67763552  0.96237544    -0.33500
H1639       H  0.69145924  0.70494953  0.94798722     0.13400
H1640       H  0.66005450  0.70793748  0.94915372     0.13300
H1641       H  0.65669438  0.66042570  0.97734795     0.13100
H1642       H  0.68813268  0.65743632  0.97618433     0.12100
C1643       C  0.19473019  0.65231553  0.94910256     0.18500
C1644       C  0.18642798  0.63755053  0.94292451    -0.10600
C1645       C  0.16845119  0.63708529  0.94132432    -0.11500
C1646       C  0.15847122  0.65136939  0.94587252     0.20000
C1647       C  0.16681098  0.66620020  0.95181863    -0.13500
C1648       C  0.18475776  0.66666511  0.95341490    -0.11800
C1649       C  0.13975228  0.65052540  0.94557374     0.01000
C1650       C  0.12423816  0.64999967  0.94725205    -0.31800
C1651       C  0.21321945  0.65243705  0.95218193     0.02400
C1652       C  0.22816482  0.65284438  0.95675649    -0.33500
H1653       H  0.19381108  0.62627119  0.93967032     0.13400
H1654       H  0.16231921  0.62543892  0.93685423     0.13300
H1655       H  0.15941291  0.67731641  0.95555860     0.13100
H1656       H  0.19083715  0.67814452  0.95836598     0.12100
C1657       C  0.44266868  0.67270794  0.97454911     0.18500
C1658       C  0.43622174  0.65586027  0.97405948    -0.10600
C1659       C  0.41844637  0.65279728  0.97480182    -0.11500
C1660       C  0.40681523  0.66652450  0.97599104     0.20000
C1661       C  0.41329512  0.68333844  0.97661786    -0.13500
C1662       C  0.43103231  0.68639464  0.97588239    -0.11800
C1663       C  0.38833922  0.66348655  0.97687053     0.01000
C1664       C  0.37292701  0.66155932  0.97853121    -0.31800
C1665       C  0.46104573  0.67612834  0.97321348     0.02400
C1666       C  0.47596943  0.68035844  0.97136831    -0.33500
H1667       H  0.44491235  0.64509398  0.97301188     0.13400
H1668       H  0.41378077  0.63969891  0.97440095     0.13300
H1669       H  0.40462330  0.69412584  0.97763493     0.13100
H1670       H  0.43567153  0.69950620  0.97625848     0.12100
C1671       C  0.13704654  0.94516289  0.83097908     0.18500
C1672       C  0.15081995  0.94017864  0.82072411    -0.10600
C1673       C  0.16741796  0.94022123  0.82737746    -0.11500
C1674       C  0.17035604  0.94525485  0.84433028     0.20000
C1675       C  0.15659832  0.95018240  0.85467772    -0.13500
C1676       C  0.13992239  0.95014354  0.84799140    -0.11800
C1677       C  0.18759106  0.94540690  0.85079242     0.01000
C1678       C  0.20257465  0.94497391  0.85441953    -0.31800
C1679       C  0.12014007  0.94534977  0.82366150     0.02400
C1680       C  0.10702610  0.94513858  0.81549632    -0.33500
H1681       H  0.14872944  0.93634093  0.80754677     0.13400
H1682       H  0.17797627  0.93639961  0.81927926     0.13300
H1683       H  0.15876720  0.95410140  0.86781086     0.13100
H1684       H  0.12934015  0.95405239  0.85600867     0.12100
C1685       C  0.28267991  0.72800936  0.08595798     0.18500
C1686       C  0.27343452  0.74180257  0.07898783    -0.10600
C1687       C  0.27648440  0.75849146  0.08478496    -0.11500
C1688       C  0.28880528  0.76144358  0.09754953     0.20000
C1689       C  0.29762692  0.74759248  0.10492260    -0.13500
C1690       C  0.29457342  0.73090079  0.09912771    -0.11800
C1691       C  0.29331492  0.77874800  0.10204776     0.01000
C1692       C  0.29741029  0.79345236  0.10446800    -0.31800
C1693       C  0.28153343  0.71134732  0.07818165     0.02400
C1694       C  0.28224052  0.69827073  0.07002679    -0.33500
H1695       H  0.26436528  0.73973869  0.06864988     0.13400
H1696       H  0.26967136  0.76913167  0.07892090     0.13300
H1697       H  0.30725533  0.74975300  0.11471947     0.13100
H1698       H  0.30194188  0.72035141  0.10445137     0.12100
C1699       C  0.31418015  0.91871249  0.96729683     0.18500
C1700       C  0.30256531  0.92905211  0.97630290    -0.10600
C1701       C  0.30180420  0.92835700  0.99429250    -0.11500
C1702       C  0.31266704  0.91731323  0.00355369     0.20000
C1703       C  0.32440566  0.90711824  0.99455006    -0.13500
C1704       C  0.32516078  0.90780645  0.97656594    -0.11800
C1705       C  0.31124903  0.91568231  0.02211652     0.01000
C1706       C  0.31011083  0.91242420  0.03733185    -0.31800
C1707       C  0.31411078  0.91868782  0.94861814     0.02400
C1708       C  0.31217067  0.91862841  0.93314414    -0.33500
H1709       H  0.29388098  0.93747150  0.96939430     0.13400
H1710       H  0.29256690  0.93623402  0.00094439     0.13300
H1711       H  0.33282059  0.89840419  0.00143040     0.13100
H1712       H  0.33412051  0.89963360  0.96989190     0.12100
C1713       C  0.44117689  0.02261054  0.33488293     0.18500
C1714       C  0.42507237  0.02655979  0.32796903    -0.10600
C1715       C  0.41027077  0.02047455  0.33590535    -0.11500
C1716       C  0.41150635  0.01042846  0.35077783     0.20000
C1717       C  0.42759862  0.00676197  0.35790741    -0.13500
C1718       C  0.44242343  0.01286780  0.34996564    -0.11800
C1719       C  0.39639991  0.00238598  0.35746659     0.01000
C1720       C  0.38364464  0.99435268  0.36066455    -0.31800
C1721       C  0.45637262  0.02750968  0.32581458     0.02400
C1722       C  0.46897596  0.03049445  0.31751051    -0.33500
H1723       H  0.42398680  0.03392795  0.31622858     0.13400
H1724       H  0.39788360  0.02315347  0.33014360     0.13300
H1725       H  0.42869619  0.99879015  0.36924630     0.13100
H1726       H  0.45485233  0.00960568  0.35531493     0.12100
C1727       C  0.30064120  0.91055170  0.21711929     0.18500
C1728       C  0.28486918  0.91189731  0.22562752    -0.10600
C1729       C  0.28427356  0.91294920  0.24363404    -0.11500
C1730       C  0.29943206  0.91260309  0.25340766     0.20000
C1731       C  0.31517628  0.91133473  0.24487129    -0.13500
C1732       C  0.31577063  0.91029180  0.22690721    -0.11800
C1733       C  0.29906978  0.91384643  0.27207998     0.01000
C1734       C  0.30043345  0.91564450  0.28753139    -0.31800
C1735       C  0.30136954  0.90873971  0.19851139     0.02400
C1736       C  0.30247174  0.90589706  0.18321383    -0.33500
H1737       H  0.27302873  0.91203194  0.21836213     0.13400
H1738       H  0.27197681  0.91399302  0.24992228     0.13300
H1739       H  0.32703093  0.91111615  0.25211678     0.13100
H1740       H  0.32807933  0.90917173  0.22064966     0.12100
C1741       C  0.31262258  0.90864017  0.71679646     0.18500
C1742       C  0.31374318  0.92453175  0.72514209    -0.10600
C1743       C  0.31434456  0.92535337  0.74309293    -0.11500
C1744       C  0.31383368  0.91031338  0.75302880     0.20000
C1745       C  0.31284901  0.89436362  0.74471004    -0.13500
C1746       C  0.31224326  0.89353928  0.72669796    -0.11800
C1747       C  0.31341256  0.91151524  0.77164978     0.01000
C1748       C  0.31172707  0.91399405  0.78692646    -0.31800
C1749       C  0.31062255  0.90810585  0.69824195     0.02400
C1750       C  0.30706445  0.90888560  0.68307722    -0.33500
H1751       H  0.31383962  0.93633011  0.71777565     0.13400
H1752       H  0.31493248  0.93780253  0.74924826     0.13300
H1753       H  0.31227568  0.88261306  0.75212362     0.13100
H1754       H  0.31117295  0.88113889  0.72051700     0.12100
C1755       C  0.29667607  0.91045924  0.46772812     0.18500
C1756       C  0.28079493  0.91070741  0.47606753    -0.10600
C1757       C  0.27989461  0.90916010  0.49399165    -0.11500
C1758       C  0.29485953  0.90731203  0.50389414     0.20000
C1759       C  0.31074418  0.90686199  0.49555508    -0.13500
C1760       C  0.31164990  0.90844927  0.47761232    -0.11800
C1761       C  0.29378049  0.90612095  0.52252438     0.01000
C1762       C  0.29160529  0.90557039  0.53795556    -0.31800
C1763       C  0.29764853  0.91302821  0.44921849     0.02400
C1764       C  0.29891999  0.91640081  0.43402515    -0.33500
H1765       H  0.26907968  0.91226240  0.46872667     0.13400
H1766       H  0.26750055  0.90946461  0.50013782     0.13300
H1767       H  0.32245195  0.90537919  0.50292075     0.13100
H1768       H  0.32404472  0.90824435  0.47146773     0.12100
C1769       C  0.17144630  0.96931402  0.60705982     0.18500
C1770       C  0.16516881  0.98240217  0.61757690    -0.10600
C1771       C  0.15907032  0.99765787  0.61022641    -0.11500
C1772       C  0.15930750  0.99980072  0.59238349     0.20000
C1773       C  0.16485938  0.98639870  0.58190274    -0.13500
C1774       C  0.17090494  0.97119676  0.58922004    -0.11800
C1775       C  0.15606078  0.01632138  0.58484494     0.01000
C1776       C  0.15566056  0.03013803  0.57791021    -0.31800
C1777       C  0.18082813  0.95513504  0.61419939     0.02400
C1778       C  0.19129433  0.94431583  0.61765236    -0.33500
H1779       H  0.16577150  0.98116304  0.63140179     0.13400
H1780       H  0.15497540  0.00803852  0.61843884     0.13300
H1781       H  0.16529541  0.98801310  0.56810883     0.13100
H1782       H  0.17597916  0.96126458  0.58099622     0.12100
C1783       C  0.27308428  0.13423871  0.53166324     0.18500
C1784       C  0.28158343  0.13407728  0.51582629    -0.10600
C1785       C  0.29959202  0.13496718  0.51508749    -0.11500
C1786       C  0.30945332  0.13596870  0.53017370     0.20000
C1787       C  0.30095058  0.13604860  0.54600661    -0.13500
C1788       C  0.28295484  0.13516201  0.54674471    -0.11800
C1789       C  0.32812296  0.13767101  0.52944412     0.01000
C1790       C  0.34349134  0.14054526  0.52919499    -0.31800
C1791       C  0.25437862  0.13307246  0.53250360     0.02400
C1792       C  0.23891901  0.13112020  0.53375132    -0.33500
H1793       H  0.27429020  0.13329186  0.50401741     0.13400
H1794       H  0.30581523  0.13498067  0.50271444     0.13300
H1795       H  0.30823147  0.13690804  0.55781872     0.13100
H1796       H  0.27673508  0.13522520  0.55912045     0.12100
C1797       C  0.71852723  0.27312314  0.62203702     0.18500
C1798       C  0.70386091  0.26778116  0.63083531    -0.10600
C1799       C  0.69761398  0.25111152  0.62862669    -0.11500
C1800       C  0.70604018  0.23976367  0.61764133     0.20000
C1801       C  0.72108853  0.24490221  0.60937724    -0.13500
C1802       C  0.72732536  0.26155995  0.61157769    -0.11800
C1803       C  0.69835568  0.22358912  0.61334358     0.01000
C1804       C  0.69188202  0.21076726  0.60769578    -0.31800
C1805       C  0.72389501  0.29073489  0.62278614     0.02400
C1806       C  0.72824465  0.30555741  0.62260182    -0.33500
H1807       H  0.69696498  0.27664927  0.63893048     0.13400
H1808       H  0.68590050  0.24728640  0.63497748     0.13300
H1809       H  0.72762603  0.23625515  0.60076094     0.13100
H1810       H  0.73866741  0.26558821  0.60469677     0.12100
C1811       C  0.52483188  0.13899988  0.52696296     0.18500
C1812       C  0.53386868  0.13530270  0.54215972    -0.10600
C1813       C  0.55187538  0.13643653  0.54271683    -0.11500
C1814       C  0.56116526  0.14130920  0.52808918     0.20000
C1815       C  0.55213330  0.14481195  0.51286745    -0.13500
C1816       C  0.53415183  0.14367609  0.51231047    -0.11800
C1817       C  0.57978658  0.14335740  0.52883358     0.01000
C1818       C  0.59517932  0.14587736  0.52985234    -0.31800
C1819       C  0.50608460  0.13913283  0.52660720     0.02400
C1820       C  0.49059604  0.14118716  0.52614404    -0.33500
H1821       H  0.52698525  0.13181460  0.55367698     0.13400
H1822       H  0.55852617  0.13375008  0.55463492     0.13300
H1823       H  0.55897933  0.14867655  0.50144566     0.13100
H1824       H  0.52749160  0.14673806  0.50048627     0.12100
C1825       C  0.05899172  0.14292706  0.51838224     0.18500
C1826       C  0.04761603  0.13749632  0.53121899    -0.10600
C1827       C  0.02978667  0.13859885  0.52869796    -0.11500
C1828       C  0.02302439  0.14510229  0.51328045     0.20000
C1829       C  0.03440087  0.15055890  0.50046353    -0.13500
C1830       C  0.05222238  0.14945729  0.50298360    -0.11800
C1831       C  0.00453505  0.14651569  0.51065770     0.01000
C1832       C  0.98933791  0.14878530  0.50783415    -0.31800
C1833       C  0.07748059  0.14111997  0.52076662     0.02400
C1834       C  0.09264326  0.13805750  0.52294485    -0.33500
H1835       H  0.05252582  0.13231404  0.54315870     0.13400
H1836       H  0.02127898  0.13435452  0.53879019     0.13300
H1837       H  0.02949432  0.15566334  0.48848863     0.13100
H1838       H  0.06072451  0.15362473  0.49285506     0.12100
C1839       C  0.77426665  0.13732868  0.50958425     0.18500
C1840       C  0.78561478  0.12999508  0.52159252    -0.10600
C1841       C  0.80343309  0.13058784  0.51898507    -0.11500
C1842       C  0.81020233  0.13854225  0.50432468     0.20000
C1843       C  0.79884288  0.14569736  0.49223546    -0.13500
C1844       C  0.78103916  0.14510900  0.49484316    -0.11800
C1845       C  0.82868913  0.13994298  0.50186669     0.01000
C1846       C  0.84384585  0.14232939  0.49907463    -0.31800
C1847       C  0.75583881  0.13749045  0.51276681     0.02400
C1848       C  0.74076622  0.13817685  0.51668870    -0.33500
H1849       H  0.78069904  0.12399244  0.53310763     0.13400
H1850       H  0.81192237  0.12502694  0.52850956     0.13300
H1851       H  0.80376335  0.15194638  0.48085240     0.13100
H1852       H  0.77257051  0.15092033  0.48544863     0.12100
C1853       C  0.44839130  0.61674652  0.79247608     0.18500
C1854       C  0.43979645  0.60485893  0.80280055    -0.10600
C1855       C  0.42506646  0.60979960  0.81156488    -0.11500
C1856       C  0.41895265  0.62664619  0.81001733     0.20000
C1857       C  0.42782528  0.63865770  0.80007601    -0.13500
C1858       C  0.44255739  0.63372125  0.79132218    -0.11800
C1859       C  0.40242956  0.63086960  0.81664010     0.01000
C1860       C  0.38755707  0.63302984  0.81980082    -0.31800
C1861       C  0.46253145  0.61135731  0.78219270     0.02400
C1862       C  0.47391822  0.60752900  0.77264585    -0.33500
H1863       H  0.44417868  0.59166162  0.80366131     0.13400
H1864       H  0.41811217  0.60037162  0.81899465     0.13300
H1865       H  0.42300664  0.65164786  0.79858230     0.13100
H1866       H  0.44907736  0.64294976  0.78327223     0.12100
C1867       C  0.42920216  0.28274941  0.56345255     0.18500
C1868       C  0.42612205  0.29937810  0.55717561    -0.10600
C1869       C  0.43296125  0.31362312  0.56576745    -0.11500
C1870       C  0.44284424  0.31120948  0.58062337     0.20000
C1871       C  0.44560722  0.29459997  0.58699618    -0.13500
C1872       C  0.43882123  0.28044450  0.57845061    -0.11800
C1873       C  0.45128728  0.32530324  0.58901046     0.01000
C1874       C  0.46067340  0.33412797  0.59754363    -0.31800
C1875       C  0.42345569  0.26784208  0.55424231     0.02400
C1876       C  0.42040853  0.25426032  0.54753617    -0.33500
H1877       H  0.41877560  0.30128638  0.54553291     0.13400
H1878       H  0.43084857  0.32641680  0.56065850     0.13300
H1879       H  0.45333334  0.29257176  0.59838163     0.13100
H1880       H  0.44137696  0.26764621  0.58336391     0.12100
C1881       C  0.53713494  0.49602105  0.67891039     0.18500
C1882       C  0.52716962  0.48780208  0.69142226    -0.10600
C1883       C  0.52577717  0.46983282  0.69181598    -0.11500
C1884       C  0.53435871  0.45977563  0.67969760     0.20000
C1885       C  0.54443652  0.46796357  0.66723853    -0.13500
C1886       C  0.54583129  0.48597284  0.66684308    -0.11800
C1887       C  0.53214683  0.44121033  0.67959800     0.01000
C1888       C  0.52929220  0.42589287  0.67874163    -0.31800
C1889       C  0.53800755  0.51470278  0.67845085     0.02400
C1890       C  0.53711494  0.53024478  0.67958668    -0.33500
H1891       H  0.52030885  0.49532505  0.70083688     0.13400
H1892       H  0.51785962  0.46380507  0.70144861     0.13300
H1893       H  0.55108362  0.46042976  0.65768569     0.13100
H1894       H  0.55354168  0.49203762  0.65706800     0.12100
C1895       C  0.54112769  0.79709300  0.86912693     0.18500
C1896       C  0.55533118  0.79457734  0.85856084    -0.10600
C1897       C  0.55830461  0.80562592  0.84478562    -0.11500
C1898       C  0.54711367  0.81929614  0.84147672     0.20000
C1899       C  0.53272803  0.82171724  0.85186689    -0.13500
C1900       C  0.52974879  0.81062576  0.86571591    -0.11800
C1901       C  0.55043014  0.83038592  0.82710533     0.01000
C1902       C  0.55439644  0.83767701  0.81408064    -0.31800
C1903       C  0.53876255  0.78598092  0.88368648     0.02400
C1904       C  0.53855831  0.77617224  0.89566326    -0.33500
H1905       H  0.56419634  0.78415015  0.86106499     0.13400
H1906       H  0.56937283  0.80354283  0.83673737     0.13300
H1907       H  0.52390458  0.83215938  0.84931215     0.13100
H1908       H  0.51870804  0.81266738  0.87380349     0.12100
C1909       C  0.54961310  0.74666364  0.69554775     0.18500
C1910       C  0.53435802  0.73726886  0.69722025    -0.10600
C1911       C  0.53445006  0.71925444  0.69593678    -0.11500
C1912       C  0.54979813  0.71034398  0.69296675     0.20000
C1913       C  0.56506115  0.71973214  0.69141242    -0.13500
C1914       C  0.56496861  0.73773964  0.69269253    -0.11800
C1915       C  0.54991076  0.69162625  0.69216535     0.01000
C1916       C  0.54939792  0.67601704  0.69288587    -0.31800
C1917       C  0.54971634  0.76530291  0.69742122     0.02400
C1918       C  0.55075034  0.78063495  0.70024022    -0.33500
H1919       H  0.52238887  0.74385405  0.69962848     0.13400
H1920       H  0.52255541  0.71226877  0.69737149     0.13300
H1921       H  0.57707925  0.71312719  0.68931341     0.13100
H1922       H  0.57691305  0.74469812  0.69156411     0.12100
C1923       C  0.54085949  0.24683728  0.69297932     0.18500
C1924       C  0.52798994  0.23693181  0.70071853    -0.10600
C1925       C  0.52846561  0.21890474  0.69987819    -0.11500
C1926       C  0.54181330  0.21056166  0.69125613     0.20000
C1927       C  0.55480571  0.22047230  0.68375138    -0.13500
C1928       C  0.55433101  0.23846889  0.68459127    -0.11800
C1929       C  0.54193490  0.19197128  0.68940775     0.01000
C1930       C  0.54285372  0.17669730  0.68641651    -0.31800
C1931       C  0.53954998  0.26546749  0.69233356     0.02400
C1932       C  0.53774233  0.28073683  0.68964365    -0.33500
H1933       H  0.51737456  0.24314952  0.70709675     0.13400
H1934       H  0.51828126  0.21150784  0.70567731     0.13300
H1935       H  0.56518043  0.21428615  0.67695764     0.13100
H1936       H  0.56427562  0.24585911  0.67837734     0.12100
C1937       C  0.54745598  0.96109133  0.70199847     0.18500
C1938       C  0.53456802  0.96870388  0.69192965    -0.10600
C1939       C  0.53337753  0.98666846  0.69056141    -0.11500
C1940       C  0.54501584  0.99729432  0.69928991     0.20000
C1941       C  0.55785859  0.98968732  0.70942461    -0.13500
C1942       C  0.55904809  0.97172317  0.71079378    -0.11800
C1943       C  0.54437661  0.01585824  0.69701795     0.01000
C1944       C  0.54464466  0.03106811  0.69346386    -0.31800
C1945       C  0.54860456  0.94247577  0.70364968     0.02400
C1946       C  0.54968005  0.92710903  0.70630188    -0.33500
H1947       H  0.52545378  0.96075529  0.68508948     0.13400
H1948       H  0.52345984  0.99226704  0.68256095     0.13300
H1949       H  0.56705621  0.99763304  0.71615398     0.13100
H1950       H  0.56905209  0.96612391  0.71868789     0.12100
C1951       C  0.77332659  0.15399383  0.83227429     0.18500
C1952       C  0.75668269  0.16041707  0.83020884    -0.10600
C1953       C  0.75246444  0.17658309  0.83668710    -0.11500
C1954       C  0.76488732  0.18634350  0.84523528     0.20000
C1955       C  0.78168981  0.18019533  0.84669857    -0.13500
C1956       C  0.78590175  0.16404654  0.84023229    -0.11800
C1957       C  0.76011957  0.20178039  0.85402462     0.01000
C1958       C  0.75677297  0.21382530  0.86303332    -0.31800
C1959       C  0.77706845  0.13649112  0.82792780     0.02400
C1960       C  0.78008452  0.12145171  0.82610295    -0.33500
H1961       H  0.74683622  0.15267644  0.82419504     0.13400
H1962       H  0.73940607  0.18117327  0.83560688     0.13300
H1963       H  0.79135550  0.18759088  0.85340634     0.13100
H1964       H  0.79877126  0.15913510  0.84202078     0.12100
C1965       C  0.64501196  0.08806994  0.59156060     0.18500
C1966       C  0.64836306  0.07798411  0.57714811    -0.10600
C1967       C  0.66471940  0.07114919  0.57469590    -0.11500
C1968       C  0.67771990  0.07436545  0.58670143     0.20000
C1969       C  0.67440449  0.08459401  0.60100775    -0.13500
C1970       C  0.65807751  0.09142978  0.60344858    -0.11800
C1971       C  0.69438684  0.06697373  0.58450788     0.01000
C1972       C  0.70842134  0.06084167  0.58292826    -0.31800
C1973       C  0.62790798  0.09370792  0.59511904     0.02400
C1974       C  0.61381206  0.09706420  0.60026659    -0.33500
H1975       H  0.63825545  0.07512869  0.56798897     0.13400
H1976       H  0.66716791  0.06322408  0.56363538     0.13300
H1977       H  0.68439257  0.08710928  0.61039872     0.13100
H1978       H  0.65554779  0.09901409  0.61473007     0.12100
C1979       C  0.80936030  0.00394618  0.71919263     0.18500
C1980       C  0.79532414  0.00980732  0.70949707    -0.10600
C1981       C  0.79600519  0.00999206  0.69152571    -0.11500
C1982       C  0.81071297  0.00434758  0.68294546     0.20000
C1983       C  0.82467392  0.99824694  0.69261392    -0.13500
C1984       C  0.82399085  0.99806151  0.71062602    -0.11800
C1985       C  0.81157525  0.00560454  0.66434630     0.01000
C1986       C  0.81084847  0.00821881  0.64899366    -0.31800
C1987       C  0.80901873  0.00506114  0.73781235     0.02400
C1988       C  0.80828931  0.00790422  0.75309833    -0.33500
H1989       H  0.78398670  0.01452037  0.71582444     0.13400
H1990       H  0.78509976  0.01483720  0.68430176     0.13300
H1991       H  0.83614749  0.99391645  0.68626784     0.13100
H1992       H  0.83503170  0.99359981  0.71788294     0.12100
C1993       C  0.67519486  0.96941471  0.40320015     0.18500
C1994       C  0.68023629  0.98647708  0.40564391    -0.10600
C1995       C  0.68351012  0.99701613  0.39151944    -0.11500
C1996       C  0.68174335  0.99054400  0.37487560     0.20000
C1997       C  0.67608584  0.97366264  0.37240629    -0.13500
C1998       C  0.67278428  0.96310995  0.38655839    -0.11800
C1999       C  0.68822548  0.00039647  0.36072096     0.01000
C2000       C  0.69674147  0.00830820  0.35058231    -0.31800
C2001       C  0.67384522  0.95807464  0.41770371     0.02400
C2002       C  0.67377214  0.94841265  0.42978962    -0.33500
H2003       H  0.68224559  0.99144640  0.41846005     0.13400
H2004       H  0.68814223  0.00994945  0.39357669     0.13300
H2005       H  0.67493901  0.96844111  0.35959138     0.13100
H2006       H  0.66898606  0.94990428  0.38453695     0.12100
C2007       C  0.81061642  0.01307845  0.46876042     0.18500
C2008       C  0.79766840  0.00513085  0.45909586    -0.10600
C2009       C  0.79744759  0.00649206  0.44115077    -0.11500
C2010       C  0.81017695  0.01583175  0.43254947     0.20000
C2011       C  0.82321735  0.02369912  0.44218625    -0.13500
C2012       C  0.82343834  0.02233488  0.46017625    -0.11800
C2013       C  0.80925985  0.01790215  0.41399677     0.01000
C2014       C  0.80680394  0.01995585  0.39872089    -0.31800
C2015       C  0.81012877  0.01235272  0.48741516     0.02400
C2016       C  0.80793051  0.01213873  0.50283309    -0.33500
H2017       H  0.78756879  0.99804430  0.46545945     0.13400
H2018       H  0.78720242  0.00043874  0.43399485     0.13300
H2019       H  0.83309827  0.03108162  0.43581862     0.13100
H2020       H  0.83346509  0.02867957  0.46738280     0.12100
C2021       C  0.81417000  0.00234172  0.96903791     0.18500
C2022       C  0.80900144  0.98815662  0.95921633    -0.10600
C2023       C  0.80870790  0.98912844  0.94120366    -0.11500
C2024       C  0.81363864  0.00427941  0.93274701     0.20000
C2025       C  0.81904986  0.01836544  0.94257157    -0.13500
C2026       C  0.81933685  0.01739666  0.96055643    -0.11800
C2027       C  0.81241598  0.00577505  0.91414343     0.01000
C2028       C  0.81066502  0.00859164  0.89888478    -0.31800
C2029       C  0.81451249  0.00146231  0.98772016     0.02400
C2030       C  0.81614550  0.00132519  0.00324416    -0.33500
H2031       H  0.80509405  0.97636777  0.96547747     0.13400
H2032       H  0.80445759  0.97811876  0.93388926     0.13300
H2033       H  0.82287623  0.03019411  0.93633086     0.13100
H2034       H  0.82350263  0.02845239  0.96785585     0.12100
C2035       C  0.80259651  0.00214896  0.18371136     0.18500
C2036       C  0.81748742  0.00372016  0.19377841    -0.10600
C2037       C  0.81647317  0.00454479  0.21174520    -0.11500
C2038       C  0.80052614  0.00381878  0.21994109     0.20000
C2039       C  0.78564442  0.00212862  0.20988765    -0.13500
C2040       C  0.78665854  0.00130862  0.19191738    -0.11800
C2041       C  0.79931340  0.00501437  0.23854872     0.01000
C2042       C  0.79706373  0.00610419  0.25392965    -0.31800
C2043       C  0.80377216  0.00199675  0.16504988     0.02400
C2044       C  0.80636068  0.00288231  0.14969745    -0.33500
H2045       H  0.82993321  0.00446039  0.18771420     0.13400
H2046       H  0.82810218  0.00586091  0.21921457     0.13300
H2047       H  0.77318910  0.00155849  0.21594776     0.13100
H2048       H  0.77501651  0.00016518  0.18443893     0.12100
C2049       C  0.22190347  0.47412110  0.27812271     0.18500
C2050       C  0.23788621  0.47365650  0.27007530    -0.10600
C2051       C  0.25245940  0.47949140  0.27878170    -0.11500
C2052       C  0.25103020  0.48577483  0.29552771     0.20000
C2053       C  0.23520261  0.48534252  0.30384313    -0.13500
C2054       C  0.22067497  0.47951330  0.29516753    -0.11800
C2055       C  0.26484304  0.49536474  0.30302751     0.01000
C2056       C  0.27470644  0.50608541  0.30813070    -0.31800
C2057       C  0.20645789  0.47139218  0.26847096     0.02400
C2058       C  0.19266109  0.47152775  0.26154177    -0.33500
H2059       H  0.23893283  0.46966781  0.25682982     0.13400
H2060       H  0.26459243  0.48002410  0.27214927     0.13300
H2061       H  0.23390066  0.49043550  0.31668303     0.13100
H2062       H  0.20834721  0.48009410  0.30143067     0.12100
C2063       C  0.03637885  0.70629119  0.07055054     0.18500
C2064       C  0.02173837  0.70711715  0.08078184    -0.10600
C2065       C  0.02251815  0.71528097  0.09665711    -0.11500
C2066       C  0.03793055  0.72260172  0.10222111     0.20000
C2067       C  0.05222474  0.72275360  0.09147896    -0.13500
C2068       C  0.05144546  0.71460349  0.07562559    -0.11800
C2069       C  0.03992691  0.72757662  0.11973066     0.01000
C2070       C  0.04306834  0.72987430  0.13461329    -0.31800
C2071       C  0.03688441  0.69473082  0.05639241     0.02400
C2072       C  0.03879251  0.68373634  0.04584976    -0.33500
H2073       H  0.01008701  0.70057124  0.07698037     0.13400
H2074       H  0.01146123  0.71499278  0.10497857     0.13300
H2075       H  0.06424042  0.72825828  0.09577887     0.13100
H2076       H  0.06286273  0.71386777  0.06783453     0.12100
C2077       C  0.08527511  0.59296144  0.24897767     0.18500
C2078       C  0.09433769  0.60206893  0.26164538    -0.10600
C2079       C  0.09469022  0.62016596  0.26153404    -0.11500
C2080       C  0.08599647  0.62948173  0.24872381     0.20000
C2081       C  0.07692073  0.62036129  0.23608913    -0.13500
C2082       C  0.07657006  0.60229062  0.23619963    -0.11800
C2083       C  0.08636841  0.64827909  0.24825774     0.01000
C2084       C  0.08556474  0.66377723  0.24601544    -0.31800
C2085       C  0.08540997  0.57415969  0.24878806     0.02400
C2086       C  0.08683904  0.55855480  0.24860991    -0.33500
H2087       H  0.10124556  0.59517028  0.27158478     0.13400
H2088       H  0.10180449  0.62686799  0.27139273     0.13300
H2089       H  0.07013885  0.62724225  0.22604769     0.13100
H2090       H  0.06958398  0.59560161  0.22624000     0.12100
C2091       C  0.93726456  0.22786963  0.38767552     0.18500
C2092       C  0.94028809  0.24409338  0.38046726    -0.10600
C2093       C  0.94900892  0.24549136  0.36487081    -0.11500
C2094       C  0.95472698  0.23066670  0.35649077     0.20000
C2095       C  0.95151538  0.21448919  0.36364155    -0.13500
C2096       C  0.94282186  0.21309614  0.37916785    -0.11800
C2097       C  0.96453245  0.23189581  0.34096500     0.01000
C2098       C  0.97350064  0.23205712  0.32843363    -0.31800
C2099       C  0.92940017  0.22609296  0.40422255     0.02400
C2100       C  0.92429029  0.22241769  0.41831403    -0.33500
H2101       H  0.93616663  0.25561620  0.38700766     0.13400
H2102       H  0.95151255  0.25807463  0.35949994     0.13300
H2103       H  0.95596461  0.20295024  0.35733758     0.13100
H2104       H  0.94068245  0.20050435  0.38468897     0.12100
C2105       C  0.06351489  0.34190447  0.25227267     0.18500
C2106       C  0.07831466  0.35005282  0.25847840    -0.10600
C2107       C  0.07974401  0.36804393  0.25797927    -0.11500
C2108       C  0.06638027  0.37819312  0.25131026     0.20000
C2109       C  0.05157908  0.37004420  0.24509602    -0.13500
C2110       C  0.05014815  0.35204113  0.24559703    -0.11800
C2111       C  0.06818501  0.39683339  0.25054545     0.01000
C2112       C  0.07165564  0.41206209  0.24986931    -0.31800
C2113       C  0.06177019  0.32327992  0.25321659     0.02400
C2114       C  0.05919646  0.30793299  0.25465649    -0.33500
H2115       H  0.08875092  0.34250620  0.26375984     0.13400
H2116       H  0.09130497  0.37404525  0.26278669     0.13300
H2117       H  0.04113492  0.37759723  0.23984051     0.13100
H2118       H  0.03858226  0.34603080  0.24081887     0.12100
C2119       C  0.98135892  0.01095974  0.12268916     0.18500
C2120       C  0.96863414  0.99845971  0.12074172    -0.10600
C2121       C  0.95411531  0.00195127  0.11084435    -0.11500
C2122       C  0.95223319  0.01795711  0.10283745     0.20000
C2123       C  0.96516676  0.03033536  0.10436843    -0.13500
C2124       C  0.97974027  0.02682896  0.11429705    -0.11800
C2125       C  0.93633530  0.02198231  0.09442550     0.01000
C2126       C  0.92195930  0.02422942  0.08926936    -0.31800
C2127       C  0.99529385  0.00783086  0.13437151     0.02400
C2128       C  0.00584439  0.00488698  0.14529380    -0.33500
H2129       H  0.96970445  0.98621314  0.12727362     0.13400
H2130       H  0.94410723  0.99235073  0.10986082     0.13300
H2131       H  0.96375511  0.04279905  0.09834171     0.13100
H2132       H  0.98947597  0.03663260  0.11582745     0.12100
C2133       C  0.08663992  0.88179058  0.22636303     0.18500
C2134       C  0.08835248  0.87117255  0.21194956    -0.10600
C2135       C  0.08976594  0.85324575  0.21385714    -0.11500
C2136       C  0.08949186  0.84560026  0.23020719     0.20000
C2137       C  0.08793103  0.85623161  0.24461445    -0.13500
C2138       C  0.08652025  0.87416357  0.24270655    -0.11800
C2139       C  0.09022023  0.82690876  0.23202767     0.01000
C2140       C  0.09007071  0.81124804  0.23191306    -0.31800
C2141       C  0.08448770  0.90034492  0.22435640     0.02400
C2142       C  0.08198710  0.91567004  0.22228581    -0.33500
H2143       H  0.08842148  0.87672732  0.19920857     0.13400
H2144       H  0.09089133  0.84532326  0.20253604     0.13300
H2145       H  0.08762256  0.85065307  0.25733892     0.13100
H2146       H  0.08515719  0.88207183  0.25400704     0.12100
C2147       C  0.08256465  0.09409218  0.24783580     0.18500
C2148       C  0.07935299  0.10485562  0.23370083    -0.10600
C2149       C  0.07730770  0.12263217  0.23589961    -0.11500
C2150       C  0.07844544  0.12994027  0.25227671     0.20000
C2151       C  0.08209788  0.11924416  0.26637059    -0.13500
C2152       C  0.08413688  0.10144111  0.26417016    -0.11800
C2153       C  0.07470430  0.14810004  0.25474208     0.01000
C2154       C  0.07021817  0.16284765  0.25718051    -0.31800
C2155       C  0.08282488  0.07552374  0.24561463     0.02400
C2156       C  0.08100904  0.06034027  0.24250558    -0.33500
H2157       H  0.07796896  0.09944200  0.22099886     0.13400
H2158       H  0.07440815  0.13061218  0.22486922     0.13300
H2159       H  0.08294064  0.12460196  0.27913936     0.13100
H2160       H  0.08649157  0.09337398  0.27526258     0.12100
loop_ 
_geom_bond_atom_site_label_1 
_geom_bond_atom_site_label_2 
_geom_bond_distance 
_geom_bond_site_symmetry_2 
_ccdc_geom_bond_type 
N1            N2   1.324       .  A
N1            C5   1.358       .  A
N1           Cu9   2.138   1_545  S
N2            C3   1.341       .  A
N2           Cu8   2.052       .  S
C3            C4   1.372       .  A
C3            H6   1.083       .  S
C4            C5   1.396       .  A
C4         C2156   1.453       .  S
C5            H7   1.083       .  S
Cu8          N11   2.052       .  S
Cu9          N19   2.139       .  S
Cu10         N12   2.076       .  S
Cu10         N18   2.078       .  S
N11          N12   1.320   1_545  A
N11          C15   1.343       .  A
N12          C13   1.346       .  A
C13          C14   1.382   1_565  A
C13          H16   1.081       .  S
C14          C15   1.377       .  A
C14        C2128   1.434       .  S
C15          H17   1.080       .  S
N18          N19   1.327       .  A
N18          C22   1.347       .  A
N19          C20   1.357       .  A
C20          C21   1.393       .  A
C20          H23   1.083       .  S
C21          C22   1.379       .  A
C21        C2142   1.459       .  S
C22          H24   1.083       .  S
N25          N26   1.326       .  A
N25          C29   1.356       .  A
N25         Cu33   2.132       .  S
N26          C27   1.345       .  A
N26         Cu32   2.074       .  S
C27          C28   1.377       .  A
C27          H30   1.083       .  S
C28          C29   1.392       .  A
C28        C2154   1.455       .  S
C29          H31   1.083       .  S
Cu32         N35   2.073       .  S
Cu33         N43   2.132       .  S
Cu34         N36   2.063       .  S
Cu34         N42   2.064       .  S
N35          N36   1.320       .  A
N35          C39   1.346   1_455  A
N36          C37   1.345   1_455  A
C37          C38   1.379       .  A
C37          H40   1.081       .  S
C38          C39   1.382       .  A
C38        C2098   1.437       .  S
C39          H41   1.081       .  S
N42          N43   1.325       .  A
N42          C46   1.343       .  A
N43          C44   1.357       .  A
C44          C45   1.394       .  A
C44          H47   1.083       .  S
C45          C46   1.375       .  A
C45        C2114   1.455       .  S
C46          H48   1.083       .  S
N49          N50   1.325       .  A
N49          C53   1.362       .  A
N49         Cu57   2.162       .  S
N50          C51   1.340       .  A
N50         Cu56   2.043       .  S
C51          C52   1.370       .  A
C51          H54   1.084       .  S
C52          C53   1.401       .  A
C52        C2140   1.459       .  S
C53          H55   1.084       .  S
Cu56         N59   2.042       .  S
Cu57         N67   2.163       .  S
Cu58         N60   2.057       .  S
Cu58         N66   2.057       .  S
N59          N60   1.318       .  A
N59          C63   1.341       .  A
N60          C61   1.344       .  A
C61          C62   1.381       .  A
C61          H64   1.082       .  S
C62          C63   1.376       .  A
C62        C2070   1.427       .  S
C63          H65   1.082       .  S
N66          N67   1.327       .  A
N66          C70   1.341       .  A
N67          C68   1.362       .  A
C68          C69   1.401       .  A
C68          H71   1.081       .  S
C69          C70   1.371       .  A
C69        C2084   1.460       .  S
C70          H72   1.083       .  S
N73          N74   1.326       .  A
N73          C77   1.360       .  A
N73         Cu81   2.153       .  S
N74          C75   1.341       .  A
N74         Cu80   2.050       .  S
C75          C76   1.371       .  A
C75          H78   1.083       .  S
C76          C77   1.399       .  A
C76        C2112   1.455       .  S
C77          H79   1.082       .  S
Cu80         N83   2.050       .  S
Cu81         N91   2.153       .  S
Cu82         N84   2.066       .  S
Cu82         N90   2.067       .  S
N83          N84   1.318       .  A
N83          C87   1.344       .  A
N84          C85   1.344       .  A
C85          C86   1.381       .  A
C85          H88   1.081       .  S
C86          C87   1.379       .  A
C86        C2058   1.433       .  S
C87          H89   1.081       .  S
N90          N91   1.327       .  A
N90          C94   1.344       .  A
N91          C92   1.360       .  A
C92          C93   1.398       .  A
C92          H95   1.083       .  S
C93          C94   1.374       .  A
C93        C2086   1.461       .  S
C94          H96   1.083       .  S
N97          N98   1.325       .  A
N97         C101   1.360       .  A
N97        Cu105   2.147       .  S
N98          C99   1.341       .  A
N98        Cu104   2.055       .  S
C99         C100   1.372       .  A
C99         H102   1.083       .  S
C100        C101   1.398       .  A
C100       C2044   1.456       .  S
C101        H103   1.082   1_545  S
Cu104       N107   2.055       .  S
Cu105       N115   2.148       .  S
Cu106       N108   2.058       .  S
Cu106       N114   2.059       .  S
N107        N108   1.318       .  A
N107        C111   1.342       .  A
N108        C109   1.345       .  A
C109        C110   1.381       .  A
C109        H112   1.081       .  S
C110        C111   1.379       .  A
C110       C2126   1.433       .  S
C111        H113   1.081       .  S
N114        N115   1.326       .  A
N114        C118   1.342       .  A
N115        C116   1.359       .  A
C116        C117   1.397       .  A
C116        H119   1.082   1_545  S
C117        C118   1.372       .  A
C117       C2030   1.456       .  S
C118        H120   1.083       .  S
N121        N122   1.324       .  A
N121        C125   1.357       .  A
N121       Cu129   2.131       .  S
N122        C123   1.343       .  A
N122       Cu128   2.061       .  S
C123        C124   1.376       .  A
C123        H126   1.083       .  S
C124        C125   1.394       .  A
C124       C2014   1.454       .  S
C125        H127   1.083       .  S
Cu128       N131   2.060       .  S
Cu129       N139   2.132       .  S
Cu130       N132   2.070       .  S
Cu130       N138   2.071       .  S
N131        N132   1.320       .  A
N131        C135   1.342       .  A
N132        C133   1.346       .  A
C133        C134   1.383       .  A
C133        H136   1.081       .  S
C134        C135   1.379       .  A
C134       C2000   1.434       .  S
C135        H137   1.081       .  S
N138        N139   1.326       .  A
N138        C142   1.344       .  A
N139        C140   1.356       .  A
C140        C141   1.393       .  A
C140        H143   1.083       .  S
C141        C142   1.376       .  A
C141       C2042   1.455       .  S
C142        H144   1.084       .  S
N145        N146   1.325       .  A
N145        C149   1.357       .  A
N145       Cu153   2.135       .  S
N146        C147   1.342       .  A
N146       Cu152   2.061       .  S
C147        C148   1.374       .  A
C147        H150   1.084       .  S
C148        C149   1.394       .  A
C148       C2016   1.454       .  S
C149        H151   1.083       .  S
Cu152       N155   2.060       .  S
Cu153       N163   2.135       .  S
Cu154       N156   2.055       .  S
Cu154       N162   2.054       .  S
N155        N156   1.320       .  A
N155        C159   1.344       .  A
N156        C157   1.343       .  A
C157        C158   1.378       .  A
C157        H160   1.081       .  S
C158        C159   1.379       .  A
C158       C1972   1.431       .  S
C159        H161   1.081       .  S
N162        N163   1.325       .  A
N162        C166   1.341       .  A
N163        C164   1.358       .  A
C164        C165   1.395       .  A
C164        H167   1.084   1_545  S
C165        C166   1.373       .  A
C165       C1986   1.452       .  S
C166        H168   1.084       .  S
N169        N170   1.326       .  A
N169        C173   1.357       .  A
N169       Cu177   2.137       .  S
N170        C171   1.342       .  A
N170       Cu176   2.060       .  S
C171        C172   1.373       .  A
C171        H174   1.085       .  S
C172        C173   1.394       .  A
C172       C1988   1.453       .  S
C173        H175   1.084   1_545  S
Cu176       N179   2.059       .  S
Cu177       N187   2.137       .  S
Cu178       N180   2.064       .  S
Cu178       N186   2.065       .  S
N179        N180   1.319       .  A
N179        C183   1.345       .  A
N180        C181   1.344       .  A
C181        C182   1.379       .  A
C181        H184   1.082       .  S
C182        C183   1.379       .  A
C182       C1960   1.434       .  S
C183        H185   1.082       .  S
N186        N187   1.326       .  A
N186        C190   1.343       .  A
N187        C188   1.358       .  A
C188        C189   1.395       .  A
C188        H191   1.082   1_545  S
C189        C190   1.375       .  A
C189       C2028   1.455       .  S
C190        H192   1.083       .  S
N193        N194   1.324       .  A
N193        C197   1.358       .  A
N193       Cu201   2.133       .  S
N194        C195   1.341       .  A
N194       Cu200   2.055       .  S
C195        C196   1.373       .  A
C195        H198   1.084       .  S
C196        C197   1.395       .  A
C196       C1944   1.452       .  S
C197        H199   1.083       .  S
Cu200       N203   2.054       .  S
Cu201       N211   2.134       .  S
Cu202       N204   2.065       .  S
Cu202       N210   2.067       .  S
N203        N204   1.319       .  A
N203        C207   1.342       .  A
N204        C205   1.346       .  A
C205        C206   1.382       .  A
C205        H208   1.080       .  S
C206        C207   1.378       .  A
C206       C1974   1.432       .  S
C207        H209   1.080       .  S
N210        N211   1.327       .  A
N210        C214   1.344       .  A
N211        C212   1.356       .  A
C212        C213   1.392       .  A
C212        H215   1.081       .  S
C213        C214   1.375       .  A
C213       C1930   1.452       .  S
C214        H216   1.081       .  S
N217        N218   1.324       .  A
N217        C221   1.359       .  A
N217       Cu225   2.140       .  S
N218        C219   1.342       .  A
N218       Cu224   2.051       .  S
C219        C220   1.373       .  A
C219        H222   1.082       .  S
C220        C221   1.397       .  A
C220       C1918   1.455       .  S
C221        H223   1.082       .  S
Cu224       N227   2.050       .  S
Cu225       N235   2.141       .  S
Cu226       N228   2.068       .  S
Cu226       N234   2.070       .  S
N227        N228   1.319       .  A
N227        C231   1.340       .  A
N228        C229   1.348       .  A
C229        C230   1.383       .  A
C229        H232   1.081       .  S
C230        C231   1.376       .  A
C230       C1902   1.434       .  S
C231        H233   1.082       .  S
N234        N235   1.327       .  A
N234        C238   1.344       .  A
N235        C236   1.357       .  A
C236        C237   1.394       .  A
C236        H239   1.082       .  S
C237        C238   1.375       .  A
C237       C1946   1.454       .  S
C238        H240   1.082       .  S
N241        N242   1.328       .  A
N241        C245   1.355       .  A
N241       Cu249   2.130       .  S
N242        C243   1.345       .  A
N242       Cu248   2.078       .  S
C243        C244   1.376       .  A
C243        H246   1.083       .  S
C244        C245   1.391       .  A
C244       C1888   1.453       .  S
C245        H247   1.082       .  S
Cu248       N251   2.075       .  S
Cu249       N259   2.128       .  S
Cu250       N252   2.050       .  S
Cu250       N258   2.050       .  S
N251        N252   1.319       .  A
N251        C255   1.350       .  A
N252        C253   1.339       .  A
C253        C254   1.375       .  A
C253        H256   1.082       .  S
C254        C255   1.385       .  A
C254       C1874   1.435       .  S
C255        H257   1.081       .  S
N258        N259   1.323       .  A
N258        C262   1.340       .  A
N259        C260   1.357       .  A
C260        C261   1.395       .  A
C260        H263   1.084       .  S
C261        C262   1.373       .  A
C261       C1932   1.451       .  S
C262        H264   1.085       .  S
N265        N266   1.324       .  A
N265        C269   1.359       .  A
N265       Cu273   2.140       .  S
N266        C267   1.341       .  A
N266       Cu272   2.052       .  S
C267        C268   1.373       .  A
C267        H270   1.083       .  S
C268        C269   1.397       .  A
C268       C1916   1.455       .  S
C269        H271   1.082       .  S
Cu272       N275   2.052       .  S
Cu273       N283   2.140       .  S
Cu274       N276   2.058       .  S
Cu274       N282   2.058       .  S
N275        N276   1.319       .  A
N275        C279   1.342       .  A
N276        C277   1.345       .  A
C277        C278   1.380       .  A
C277        H280   1.080       .  S
C278        C279   1.377       .  A
C278       C1862   1.429       .  S
C279        H281   1.080       .  S
N282        N283   1.326       .  A
N282        C286   1.341       .  A
N283        C284   1.358       .  A
C284        C285   1.395       .  A
C284        H287   1.082       .  S
C285        C286   1.373       .  A
C285       C1890   1.453       .  S
C286        H288   1.082       .  S
N289        N290   1.327       .  A
N289        C293   1.358       .  A
N289       Cu297   2.141       .  S
N290        C291   1.345       .  A
N290       Cu296   2.074       .  S
C291        C292   1.377       .  A
C291        H294   1.082       .  S
C292        C293   1.395       .  A
C292       C1846   1.458       .  S
C293        H295   1.082       .  S
Cu296       N299   2.073       .  S
Cu297       N307   2.140       .  S
Cu298       N300   2.061       .  S
Cu298       N306   2.063       .  S
N299        N300   1.320       .  A
N299        C303   1.347       .  A
N300        C301   1.343       .  A
C301        C302   1.379       .  A
C301        H304   1.082       .  S
C302        C303   1.383       .  A
C302       C2100   1.436       .  S
C303        H305   1.081       .  S
N306        N307   1.325       .  A
N306        C310   1.343       .  A
N307        C308   1.358       .  A
C308        C309   1.396       .  A
C308        H311   1.086       .  S
C309        C310   1.375       .  A
C309       C1832   1.458       .  S
C310        H312   1.087       .  S
N313        N314   1.324       .  A
N313        C317   1.359       .  A
N313       Cu321   2.143       .  S
N314        C315   1.343       .  A
N314       Cu320   2.054       .  S
C315        C316   1.374       .  A
C315        H318   1.082       .  S
C316        C317   1.398       .  A
C316       C1848   1.458       .  S
C317        H319   1.082       .  S
Cu320       N323   2.054       .  S
Cu321       N331   2.144       .  S
Cu322       N324   2.072       .  S
Cu322       N330   2.074       .  S
N323        N324   1.320       .  A
N323        C327   1.343       .  A
N324        C325   1.346       .  A
C325        C326   1.383       .  A
C325        H328   1.080       .  S
C326        C327   1.377       .  A
C326       C1804   1.433       .  S
C327        H329   1.081       .  S
N330        N331   1.326       .  A
N330        C334   1.346       .  A
N331        C332   1.357       .  A
C332        C333   1.395       .  A
C332        H335   1.084       .  S
C333        C334   1.378       .  A
C333       C1818   1.461       .  S
C334        H336   1.083       .  S
N337        N338   1.327       .  A
N337        C341   1.361       .  A
N337       Cu345   2.157       .  S
N338        C339   1.344       .  A
N338       Cu344   2.066       .  S
C339        C340   1.374       .  A
C339        H342   1.082       .  S
C340        C341   1.399       .  A
C340       C1790   1.461       .  S
C341        H343   1.082       .  S
Cu344       N347   2.065       .  S
Cu345       N355   2.157       .  S
Cu346       N348   2.059       .  S
Cu346       N354   2.059       .  S
N347        N348   1.319       .  A
N347        C351   1.346       .  A
N348        C349   1.343       .  A
C349        C350   1.380       .  A
C349        H352   1.081       .  S
C350        C351   1.382       .  A
C350       C1876   1.436       .  S
C351        H353   1.081       .  S
N354        N355   1.326       .  A
N354        C358   1.342       .  A
N355        C356   1.361       .  A
C356        C357   1.400       .  A
C356        H359   1.082       .  S
C357        C358   1.373       .  A
C357       C1820   1.460       .  S
C358        H360   1.083       .  S
N361        N362   1.326       .  A
N361        C365   1.360       .  A
N361       Cu369   2.153       .  S
N362        C363   1.345       .  A
N362       Cu368   2.067       .  S
C363        C364   1.376       .  A
C363        H366   1.082       .  S
C364        C365   1.398       .  A
C364       C1792   1.462       .  S
C365        H367   1.082       .  S
Cu368       N371   2.066       .  S
Cu369       N379   2.153       .  S
Cu370       N372   2.054       .  S
Cu370       N378   2.055       .  S
N371        N372   1.319       .  A
N371        C375   1.343       .  A
N372        C373   1.345       .  A
C373        C374   1.378       .  A
C373        H376   1.081       .  S
C374        C375   1.380       .  A
C374       C1776   1.433       .  S
C375        H377   1.082       .  S
N378        N379   1.326       .  A
N378        C382   1.342       .  A
N379        C380   1.360       .  A
C380        C381   1.398       .  A
C380        H383   1.083       .  S
C381        C382   1.372       .  A
C381       C1834   1.457       .  S
C382        H384   1.084       .  S
N385        N386   1.326       .  A
N385        C389   1.357       .  A
N385       Cu393   2.137       .  S
N386        C387   1.345       .  A
N386       Cu392   2.070       .  S
C387        C388   1.377       .  A
C387        H390   1.082       .  S
C388        C389   1.394       .  A
C388       C1762   1.456       .  S
C389        H391   1.082       .  S
Cu392       N395   2.068       .  S
Cu393       N403   2.137       .  S
Cu394       N396   2.055       .  S
Cu394       N402   2.056       .  S
N395        N396   1.319       .  A
N395        C399   1.343       .  A
N396        C397   1.345       .  A
C397        C398   1.380       .  A
C397        H400   1.080       .  S
C398        C399   1.381       .  A
C398       C1778   1.432       .  S
C399        H401   1.081       .  S
N402        N403   1.325       .  A
N402        C406   1.341       .  A
N403        C404   1.358       .  A
C404        C405   1.395       .  A
C404        H407   1.083       .  S
C405        C406   1.372       .  A
C405       C1750   1.452       .  S
C406        H408   1.084       .  S
N409        N410   1.324       .  A
N409        C413   1.359       .  A
N409       Cu417   2.145       .  S
N410        C411   1.342       .  A
N410       Cu416   2.052       .  S
C411        C412   1.373       .  A
C411        H414   1.084       .  S
C412        C413   1.398       .  A
C412       C1734   1.457       .  S
C413        H415   1.084       .  S
Cu416       N419   2.052       .  S
Cu417       N427   2.146       .  S
Cu418       N420   2.066       .  S
Cu418       N426   2.068       .  S
N419        N420   1.319       .  A
N419        C423   1.340       .  A
N420        C421   1.348       .  A
C421        C422   1.382       .  A
C421        H424   1.080       .  S
C422        C423   1.376       .  A
C422       C1720   1.432       .  S
C423        H425   1.081       .  S
N426        N427   1.327       .  A
N426        C430   1.344       .  A
N427        C428   1.358       .  A
C428        C429   1.395       .  A
C428        H431   1.081       .  S
C429        C430   1.375       .  A
C429       C1764   1.457       .  S
C430        H432   1.081       .  S
N433        N434   1.327       .  A
N433        C437   1.358       .  A
N433       Cu441   2.144       .  S
N434        C435   1.344       .  A
N434       Cu440   2.068       .  S
C435        C436   1.375       .  A
C435        H438   1.084       .  S
C436        C437   1.395       .  A
C436       C1736   1.457       .  S
C437        H439   1.084       .  S
Cu440       N443   2.066       .  S
Cu441       N451   2.143       .  S
Cu442       N444   2.056       .  S
Cu442       N450   2.056       .  S
N443        N444   1.319       .  A
N443        C447   1.346       .  A
N444        C445   1.343       .  A
C445        C446   1.378       .  A
C445        H448   1.081       .  S
C446        C447   1.381       .  A
C446       C1692   1.434       .  S
C447        H449   1.081       .  S
N450        N451   1.325       .  A
N450        C454   1.342       .  A
N451        C452   1.359       .  A
C452        C453   1.397       .  A
C452        H455   1.083       .  S
C453        C454   1.373       .  A
C453       C1706   1.455       .  S
C454        H456   1.083       .  S
N457        N458   1.325       .  A
N457        C461   1.357       .  A
N457       Cu465   2.137       .  S
N458        C459   1.342       .  A
N458       Cu464   2.060       .  S
C459        C460   1.374       .  A
C459        H462   1.084       .  S
C460        C461   1.394       .  A
C460       C1748   1.454       .  S
C461        H463   1.084       .  S
Cu464       N467   2.059       .  S
Cu465       N475   2.137       .  S
Cu466       N468   2.056       .  S
Cu466       N474   2.057       .  S
N467        N468   1.319       .  A
N467        C471   1.343       .  A
N468        C469   1.345       .  A
C469        C470   1.379       .  A
C469        H472   1.081       .  S
C470        C471   1.379       .  A
C470       C1678   1.432       .  S
C471        H473   1.082       .  S
N474        N475   1.325       .  A
N474        C478   1.341       .  A
N475        C476   1.358       .  A
C476        C477   1.396       .  A
C476        H479   1.082       .  S
C477        C478   1.373       .  A
C477       C1708   1.453       .  S
C478        H480   1.083       .  S
N481        N482   1.326       .  A
N481        C485   1.359       .  A
N481       Cu489   2.151       .  S
N482        C483   1.345       .  A
N482       Cu488   2.068   1_556  S
C483        C484   1.376       .  A
C483        H486   1.082   1_556  S
C484        C485   1.397       .  A
C484       C1664   1.461       .  S
C485        H487   1.083       .  S
Cu488       N491   2.066       .  S
Cu489       N499   2.150       .  S
Cu490       N492   2.056       .  S
Cu490       N498   2.057   1_554  S
N491        N492   1.319       .  A
N491        C495   1.344       .  A
N492        C493   1.345       .  A
C493        C494   1.381       .  A
C493        H496   1.081       .  S
C494        C495   1.381       .  A
C494       C1694   1.435       .  S
C495        H497   1.081       .  S
N498        N499   1.325       .  A
N498        C502   1.342       .  A
N499        C500   1.360       .  A
C500        C501   1.398       .  A
C500        H503   1.083       .  S
C501        C502   1.372       .  A
C501       C1652   1.458       .  S
C502        H504   1.083       .  S
N505        N506   1.326       .  A
N505        C509   1.359       .  A
N505       Cu513   2.151       .  S
N506        C507   1.344       .  A
N506       Cu512   2.066       .  S
C507        C508   1.375       .  A
C507        H510   1.082       .  S
C508        C509   1.397       .  A
C508       C1666   1.460       .  S
C509        H511   1.082       .  S
Cu512       N515   2.065       .  S
Cu513       N523   2.151       .  S
Cu514       N516   2.068       .  S
Cu514       N522   2.069       .  S
N515        N516   1.320       .  A
N515        C519   1.347       .  A
N516        C517   1.344       .  A
C517        C518   1.380       .  A
C517        H520   1.080       .  S
C518        C519   1.381       .  A
C518       C1904   1.436       .  S
C519        H521   1.080       .  S
N522        N523   1.326       .  A
N522        C526   1.345       .  A
N523        C524   1.360       .  A
C524        C525   1.398       .  A
C524        H527   1.083       .  S
C525        C526   1.376       .  A
C525       C1636   1.462       .  S
C526        H528   1.084       .  S
N529        N530   1.326       .  A
N529        C533   1.362       .  A
N529       Cu537   2.162       .  S
N530        C531   1.343       .  A
N530       Cu536   2.059       .  S
C531        C532   1.373       .  A
C531        H534   1.082       .  S
C532        C533   1.401       .  A
C532       C1622   1.462       .  S
C533        H535   1.081       .  S
Cu536       N539   2.058   1_556  S
Cu537       N547   2.163       .  S
Cu538       N540   2.055       .  S
Cu538       N546   2.056   1_554  S
N539        N540   1.318       .  A
N539        C543   1.343       .  A
N540        C541   1.345       .  A
C541        C542   1.380       .  A
C541        H544   1.078       .  S
C542        C543   1.380       .  A
C542       C1608   1.432       .  S
C543        H545   1.078       .  S
N546        N547   1.326       .  A
N546        C550   1.342       .  A
N547        C548   1.362       .  A
C548        C549   1.401       .  A
C548        H551   1.083       .  S
C549        C550   1.372       .  A
C549       C1638   1.462       .  S
C550        H552   1.084       .  S
N553        N554   1.325       .  A
N553        C557   1.361       .  A
N553       Cu561   2.162       .  S
N554        C555   1.342   1_455  A
N554       Cu560   2.048       .  S
C555        C556   1.372       .  A
C555        H558   1.082       .  S
C556        C557   1.401   1_655  A
C556       C1624   1.461       .  S
C557        H559   1.083       .  S
Cu560       N563   2.047   1_556  S
Cu561       N571   2.161       .  S
Cu562       N564   2.048   1_556  S
Cu562       N570   2.051       .  S
N563        N564   1.318       .  A
N563        C567   1.343       .  A
N564        C565   1.342       .  A
C565        C566   1.377       .  A
C565        H568   1.082       .  S
C566        C567   1.376       .  A
C566       C2072   1.427       .  S
C567        H569   1.083       .  S
N570        N571   1.325       .  A
N570        C574   1.342       .  A
N571        C572   1.361       .  A
C572        C573   1.400       .  A
C572        H575   1.081       .  S
C573        C574   1.373       .  A
C573       C1650   1.459       .  S
C574        H576   1.080       .  S
N577        N578   1.327       .  A
N577        C581   1.359       .  A
N577       Cu585   2.150       .  S
N578        C579   1.343       .  A
N578       Cu584   2.065       .  S
C579        C580   1.373       .  A
C579        H582   1.083       .  S
C580        C581   1.396       .  A
C580       C1594   1.456       .  S
C581        H583   1.083       .  S
Cu584       N587   2.063       .  S
Cu585       N595   2.149       .  S
Cu586       N588   2.051       .  S
Cu586       N594   2.051       .  S
N587        N588   1.319       .  A
N587        C591   1.346       .  A
N588        C589   1.342       .  A
C589        C590   1.377       .  A
C589        H592   1.083       .  S
C590        C591   1.381       .  A
C590       C1722   1.433       .  S
C591        H593   1.083       .  S
N594        N595   1.324       .  A
N594        C598   1.341   1_545  A
N595        C596   1.361   1_545  A
C596        C597   1.399       .  A
C596        H599   1.082       .  S
C597        C598   1.372       .  A
C597       C1580   1.457       .  S
C598        H600   1.083       .  S
N601        N602   1.324       .  A
N601        C605   1.359       .  A
N601       Cu609   2.137       .  S
N602        C603   1.339       .  A
N602       Cu608   2.045       .  S
C603        C604   1.370       .  A
C603        H606   1.082       .  S
C604        C605   1.396       .  A
C604       C1566   1.449       .  S
C605        H607   1.081       .  S
Cu608       N611   2.045       .  S
Cu609       N619   2.139       .  S
Cu610       N612   2.066       .  S
Cu610       N618   2.068       .  S
N611        N612   1.318       .  A
N611        C615   1.341       .  A
N612        C613   1.346       .  A
C613        C614   1.382       .  A
C613        H616   1.081       .  S
C614        C615   1.377       .  A
C614       C1552   1.432       .  S
C615        H617   1.080       .  S
N618        N619   1.327       .  A
N618        C622   1.343       .  A
N619        C620   1.357       .  A
C620        C621   1.394       .  A
C620        H623   1.083       .  S
C621        C622   1.374       .  A
C621       C1596   1.455       .  S
C622        H624   1.083       .  S
N625        N626   1.326       .  A
N625        C629   1.359       .  A
N625       Cu633   2.147       .  S
N626        C627   1.340       .  A
N626       Cu632   2.054       .  S
C627        C628   1.371       .  A
C627        H630   1.085       .  S
C628        C629   1.397       .  A
C628       C1538   1.453       .  S
C629        H631   1.084       .  S
Cu632       N635   2.054       .  S
Cu633       N643   2.147       .  S
Cu634       N636   2.060       .  S
Cu634       N642   2.062       .  S
N635        N636   1.318       .  A
N635        C639   1.344       .  A
N636        C637   1.344       .  A
C637        C638   1.381       .  A
C637        H640   1.081       .  S
C638        C639   1.381       .  A
C638       C1526   1.432       .  S
C639        H641   1.080       .  S
N642        N643   1.326       .  A
N642        C646   1.343       .  A
N643        C644   1.359       .  A
C644        C645   1.397       .  A
C644        H647   1.083       .  S
C645        C646   1.373       .  A
C645       C1582   1.458       .  S
C646        H648   1.084       .  S
N649        N650   1.324       .  A
N649        C653   1.356       .  A
N649       Cu657   2.125       .  S
N650        C651   1.342       .  A
N650       Cu656   2.059       .  S
C651        C652   1.374       .  A
C651        H654   1.083       .  S
C652        C653   1.393       .  A
C652       C1568   1.450       .  S
C653        H655   1.083       .  S
Cu656       N659   2.057       .  S
Cu657       N667   2.126       .  S
Cu658       N660   2.068       .  S
Cu658       N666   2.071       .  S
N659        N660   1.319       .  A
N659        C663   1.342       .  A
N660        C661   1.346       .  A
C661        C662   1.382       .  A
C661        H664   1.083       .  S
C662        C663   1.379       .  A
C662       C1510   1.434       .  S
C663        H665   1.083       .  S
N666        N667   1.326       .  A
N666        C670   1.344       .  A
N667        C668   1.355       .  A
C668        C669   1.391       .  A
C668        H671   1.082       .  S
C669        C670   1.376       .  A
C669       C1540   1.452       .  S
C670        H672   1.082       .  S
N673        N674   1.325       .  A
N673        C677   1.358       .  A
N673       Cu681   2.136       .  S
N674        C675   1.343       .  A
N674       Cu680   2.064       .  S
C675        C676   1.375       .  A
C675        H678   1.082   1_565  S
C676        C677   1.395       .  A
C676       C1482   1.455   1_565  S
C677        H679   1.081       .  S
Cu680       N683   2.062       .  S
Cu681       N691   2.136       .  S
Cu682       N684   2.065       .  S
Cu682       N690   2.066       .  S
N683        N684   1.320       .  A
N683        C687   1.344       .  A
N684        C685   1.345       .  A
C685        C686   1.381       .  A
C685        H688   1.081       .  S
C686        C687   1.380       .  A
C686       C1680   1.434       .  S
C687        H689   1.081       .  S
N690        N691   1.326       .  A
N690        C694   1.344       .  A
N691        C692   1.357       .  A
C692        C693   1.394       .  A
C692        H695   1.082       .  S
C693        C694   1.376       .  A
C693       C1496   1.455       .  S
C694        H696   1.082       .  S
N697        N698   1.325       .  A
N697        C701   1.357       .  A
N697       Cu705   2.137       .  S
N698        C699   1.343       .  A
N698       Cu704   2.059   1_455  S
C699        C700   1.375       .  A
C699        H702   1.082       .  S
C700        C701   1.395       .  A
C700       C1498   1.454       .  S
C701        H703   1.082       .  S
Cu704       N707   2.060       .  S
Cu705       N715   2.138       .  S
Cu706       N708   2.062   1_455  S
Cu706       N714   2.063       .  S
N707        N708   1.320       .  A
N707        C711   1.343       .  A
N708        C709   1.345       .  A
C709        C710   1.380       .  A
C709        H712   1.082   1_655  S
C710        C711   1.379       .  A
C710       C1454   1.433       .  S
C711        H713   1.082       .  S
N714        N715   1.325       .  A
N714        C718   1.343       .  A
N715        C716   1.358       .  A
C716        C717   1.395       .  A
C716        H719   1.083       .  S
C717        C718   1.374       .  A
C717       C1468   1.455       .  S
C718        H720   1.084       .  S
N721        N722   1.326       .  A
N721        C725   1.360       .  A
N721       Cu729   2.149       .  S
N722        C723   1.341       .  A
N722       Cu728   2.057       .  S
C723        C724   1.372       .  A
C723        H726   1.082       .  S
C724        C725   1.397       .  A
C724       C1484   1.455       .  S
C725        H727   1.082       .  S
Cu728       N731   2.057       .  S
Cu729       N739   2.149       .  S
Cu730       N732   2.057       .  S
Cu730       N738   2.058       .  S
N731        N732   1.318       .  A
N731        C735   1.344       .  A
N732        C733   1.344       .  A
C733        C734   1.380       .  A
C733        H736   1.082       .  S
C734        C735   1.379       .  A
C734       C1426   1.433   1_455  S
C735        H737   1.082       .  S
N738        N739   1.326       .  A
N738        C742   1.341       .  A
N739        C740   1.360       .  A
C740        C741   1.398       .  A
C740        H743   1.083       .  S
C741        C742   1.372       .  A
C741       C1440   1.456       .  S
C742        H744   1.084       .  S
N745        N746   1.324       .  A
N745        C749   1.359       .  A
N745       Cu753   2.145       .  S
N746        C747   1.342       .  A
N746       Cu752   2.053       .  S
C747        C748   1.373       .  A
C747        H750   1.083       .  S
C748        C749   1.398       .  A
C748       C1442   1.457       .  S
C749        H751   1.083       .  S
Cu752       N755   2.053       .  S
Cu753       N763   2.146       .  S
Cu754       N756   2.066       .  S
Cu754       N762   2.068       .  S
N755        N756   1.319       .  A
N755        C759   1.342       .  A
N756        C757   1.346       .  A
C757        C758   1.382       .  A
C757        H760   1.081       .  S
C758        C759   1.377       .  A
C758       C1414   1.432   1_455  S
C759        H761   1.081       .  S
N762        N763   1.327       .  A
N762        C766   1.343       .  A
N763        C764   1.358       .  A
C764        C765   1.395       .  A
C764        H767   1.083       .  S
C765        C766   1.374       .  A
C765       C1470   1.456       .  S
C766        H768   1.084       .  S
N769        N770   1.326       .  A
N769        C773   1.358       .  A
N769       Cu777   2.146   1_455  S
N770        C771   1.344       .  A
N770       Cu776   2.067       .  S
C771        C772   1.376       .  A
C771        H774   1.083       .  S
C772        C773   1.396       .  A
C772       C1398   1.459       .  S
C773        H775   1.083       .  S
Cu776       N779   2.065   1_455  S
Cu777       N787   2.145       .  S
Cu778       N780   2.058       .  S
Cu778       N786   2.059       .  S
N779        N780   1.319       .  A
N779        C783   1.343   1_655  A
N780        C781   1.344       .  A
C781        C782   1.380       .  A
C781        H784   1.082       .  S
C782        C783   1.381   1_655  A
C782       C1428   1.433       .  S
C783        H785   1.082       .  S
N786        N787   1.326       .  A
N786        C790   1.343       .  A
N787        C788   1.358       .  A
C788        C789   1.396       .  A
C788        H791   1.084       .  S
C789        C790   1.374       .  A
C789       C1386   1.457       .  S
C790        H792   1.084       .  S
N793        N794   1.327       .  A
N793        C797   1.359       .  A
N793       Cu801   2.150       .  S
N794        C795   1.345       .  A
N794       Cu800   2.073       .  S
C795        C796   1.376       .  A
C795        H798   1.083       .  S
C796        C797   1.396       .  A
C796       C1400   1.460       .  S
C797        H799   1.082       .  S
Cu800       N803   2.072   1_556  S
Cu801       N811   2.149       .  S
Cu802       N804   2.059   1_556  S
Cu802       N810   2.060       .  S
N803        N804   1.319       .  A
N803        C807   1.347       .  A
N804        C805   1.343       .  A
C805        C806   1.379       .  A
C805        H808   1.082       .  S
C806        C807   1.383       .  A
C806       C1356   1.438       .  S
C807        H809   1.082       .  S
N810        N811   1.325       .  A
N810        C814   1.343       .  A
N811        C812   1.360       .  A
C812        C813   1.398       .  A
C812        H815   1.083       .  S
C813        C814   1.374       .  A
C813       C1370   1.459       .  S
C814        H816   1.084       .  S
N817        N818   1.325       .  A
N817        C821   1.361       .  A
N817       Cu825   2.154       .  S
N818        C819   1.342       .  A
N818       Cu824   2.055       .  S
C819        C820   1.373       .  A
C819        H822   1.082       .  S
C820        C821   1.399       .  A
C820       C1344   1.459       .  S
C821        H823   1.082       .  S
Cu824       N827   2.054   1_556  S
Cu825       N835   2.155       .  S
Cu826       N828   2.058   1_556  S
Cu826       N834   2.059       .  S
N827        N828   1.318       .  A
N827        C831   1.342       .  A
N828        C829   1.345       .  A
C829        C830   1.381       .  A
C829        H832   1.081       .  S
C830        C831   1.378       .  A
C830       C1554   1.432       .  S
C831        H833   1.082       .  S
N834        N835   1.326       .  A
N834        C838   1.342       .  A
N835        C836   1.360       .  A
C836        C837   1.399       .  A
C836        H839   1.083       .  S
C837        C838   1.373       .  A
C837       C1372   1.459       .  S
C838        H840   1.083       .  S
N841        N842   1.327       .  A
N841        C845   1.358       .  A
N841       Cu849   2.148       .  S
N842        C843   1.345       .  A
N842       Cu848   2.071       .  S
C843        C844   1.376       .  A
C843        H846   1.082       .  S
C844        C845   1.396       .  A
C844       C1342   1.459       .  S
C845        H847   1.082       .  S
Cu848       N851   2.069       .  S
Cu849       N859   2.147       .  S
Cu850       N852   2.052       .  S
Cu850       N858   2.051       .  S
N851        N852   1.319       .  A
N851        C855   1.347       .  A
N852        C853   1.342       .  A
C853        C854   1.377       .  A
C853        H856   1.081       .  S
C854        C855   1.382       .  A
C854       C1958   1.434       .  S
C855        H857   1.081       .  S
N858        N859   1.324       .  A
N858        C862   1.341       .  A
N859        C860   1.360       .  A
C860        C861   1.399       .  A
C860        H863   1.081       .  S
C861        C862   1.372       .  A
C861       C1384   1.456       .  S
C862        H864   1.082       .  S
N865        N866   1.328       .  A
N865        C869   1.356       .  A
N865       Cu873   2.136       .  S
N866        C867   1.345       .  A
N866       Cu872   2.080       .  S
C867        C868   1.377       .  A
C867        H870   1.084       .  S
C868        C869   1.392       .  A
C868       C1328   1.456       .  S
C869        H871   1.083       .  S
Cu872       N875   2.078       .  S
Cu873       N883   2.135       .  S
Cu874       N876   2.056       .  S
Cu874       N882   2.057       .  S
N875        N876   1.320       .  A
N875        C879   1.349       .  A
N876        C877   1.343       .  A
C877        C878   1.378       .  A
C877        H880   1.081       .  S
C878        C879   1.384       .  A
C878       C1358   1.438       .  S
C879        H881   1.080       .  S
N882        N883   1.324       .  A
N882        C886   1.342       .  A
N883        C884   1.359       .  A
C884        C885   1.396       .  A
C884        H887   1.080       .  S
C885        C886   1.373       .  A
C885       C1314   1.453   1_554  S
C886        H888   1.081       .  S
N889        N890   1.325       .  A
N889        C893   1.358       .  A
N889       Cu897   2.137       .  S
N890        C891   1.342       .  A
N890       Cu896   2.058       .  S
C891        C892   1.374       .  A
C891        H894   1.082       .  S
C892        C893   1.396       .  A
C892       C1330   1.454       .  S
C893        H895   1.082       .  S
Cu896       N899   2.057       .  S
Cu897       N907   2.138       .  S
Cu898       N900   2.067       .  S
Cu898       N906   2.069       .  S
N899        N900   1.319       .  A
N899        C903   1.342       .  A
N900        C901   1.346       .  A
C901        C902   1.383       .  A
C901        H904   1.083       .  S
C902        C903   1.379       .  A
C902       C2056   1.434       .  S
C903        H905   1.083       .  S
N906        N907   1.326       .  A
N906        C910   1.344       .  A
N907        C908   1.358       .  A
C908        C909   1.394       .  A
C908        H911   1.081       .  S
C909        C910   1.375       .  A
C909       C1300   1.455       .  S
C910        H912   1.082       .  S
N913        N914   1.327       .  A
N913        C917   1.358       .  A
N913       Cu921   2.144       .  S
N914        C915   1.344       .  A
N914       Cu920   2.068       .  S
C915        C916   1.375       .  A
C915        H918   1.082       .  S
C916        C917   1.395       .  A
C916       C1302   1.456       .  S
C917        H919   1.082       .  S
Cu920       N923   2.067       .  S
Cu921       N931   2.144       .  S
Cu922       N924   2.059       .  S
Cu922       N930   2.060       .  S
N923        N924   1.319       .  A
N923        C927   1.345       .  A
N924        C925   1.344       .  A
C925        C926   1.379       .  A
C925        H928   1.082       .  S
C926        C927   1.381       .  A
C926       C1272   1.434       .  S
C927        H929   1.082       .  S
N930        N931   1.325       .  A
N930        C934   1.343       .  A
N931        C932   1.359       .  A
C932        C933   1.397       .  A
C932        H935   1.080       .  S
C933        C934   1.374       .  A
C933       C1286   1.457       .  S
C934        H936   1.080       .  S
N937        N938   1.326       .  A
N937        C941   1.361       .  A
N937       Cu945   2.154       .  S
N938        C939   1.339       .  A
N938       Cu944   2.047       .  S
C939        C940   1.369       .  A
C939        H942   1.083       .  S
C940        C941   1.399       .  A
C940       C1316   1.454       .  S
C941        H943   1.082       .  S
Cu944       N947   2.047       .  S
Cu945       N955   2.154       .  S
Cu946       N948   2.054       .  S
Cu946       N954   2.055       .  S
N947        N948   1.317       .  A
N947        C951   1.344       .  A
N948        C949   1.341       .  A
C949        C950   1.379       .  A
C949        H952   1.080       .  S
C950        C951   1.379       .  A
C950       C1860   1.428       .  S
C951        H953   1.080       .  S
N954        N955   1.325       .  A
N954        C958   1.342       .  A
N955        C956   1.361       .  A
C956        C957   1.399       .  A
C956        H959   1.080       .  S
C957        C958   1.372       .  A
C957       C1288   1.458       .  S
C958        H960   1.080       .  S
N961        N962   1.326       .  A
N961        C965   1.362       .  A
N961       Cu969   2.163       .  S
N962        C963   1.341       .  A
N962       Cu968   2.053       .  S
C963        C964   1.371       .  A
C963        H966   1.084       .  S
C964        C965   1.401       .  A
C964       C1260   1.460       .  S
C965        H967   1.083       .  S
Cu968       N971   2.053       .  S
Cu969       N979   2.163       .  S
Cu970       N972   2.055       .  S
Cu970       N978   2.056       .  S
N971        N972   1.317       .  A
N971        C975   1.345       .  A
N972        C973   1.342       .  A
C973        C974   1.381       .  A
C973        H976   1.081       .  S
C974        C975   1.381       .  A
C974       C1274   1.433       .  S
C975        H977   1.081       .  S
N978        N979   1.326       .  A
N978        C982   1.342       .  A
N979        C980   1.362       .  A
C980        C981   1.401       .  A
C980        H983   1.081       .  S
C981        C982   1.372       .  A
C981       C1244   1.460       .  S
C982        H984   1.082       .  S
N985        N986   1.325       .  A
N985        C989   1.360       .  A
N985       Cu993   2.150       .  S
N986        C987   1.344       .  A
N986       Cu992   2.059       .  S
C987        C988   1.375       .  A
C987        H990   1.082       .  S
C988        C989   1.398       .  A
C988       C1258   1.461       .  S
C989        H991   1.082       .  S
Cu992       N995   2.057       .  S
Cu993      N1003   2.150       .  S
Cu994       N996   2.071       .  S
Cu994      N1002   2.072       .  S
N995        N996   1.320       .  A
N995        C999   1.343       .  A
N996        C997   1.346       .  A
C997        C998   1.383       .  A
C997       H1000   1.081       .  S
C998        C999   1.378       .  A
C998       C1456   1.434       .  S
C999       H1001   1.081       .  S
N1002      N1003   1.327       .  A
N1002      C1006   1.346       .  A
N1003      C1004   1.359       .  A
C1004      C1005   1.396       .  A
C1004      H1007   1.082       .  S
C1005      C1006   1.377       .  A
C1005      C1232   1.461       .  S
C1006      H1008   1.081       .  S
N1009      N1010   1.326       .  A
N1009      C1013   1.359       .  A
N1009     Cu1017   2.149       .  S
N1010      C1011   1.343       .  A
N1010     Cu1016   2.061       .  S
C1011      C1012   1.374       .  A
C1011      H1014   1.083       .  S
C1012      C1013   1.397       .  A
C1012      C1216   1.457       .  S
C1013      H1015   1.083       .  S
Cu1016     N1019   2.060       .  S
Cu1017     N1027   2.149       .  S
Cu1018     N1020   2.061       .  S
Cu1018     N1026   2.062       .  S
N1019      N1020   1.319       .  A
N1019      C1023   1.344       .  A
N1020      C1021   1.344       .  A
C1021      C1022   1.379       .  A
C1021      H1024   1.082       .  S
C1022      C1023   1.380       .  A
C1022      C1524   1.433       .  S
C1023      H1025   1.082       .  S
N1026      N1027   1.325       .  A
N1026      C1030   1.344       .  A
N1027      C1028   1.360       .  A
C1028      C1029   1.398       .  A
C1028      H1031   1.078       .  S
C1029      C1030   1.375       .  A
C1029      C1246   1.459       .  S
C1030      H1032   1.079       .  S
N1033      N1034   1.326       .  A
N1033      C1037   1.359       .  A
N1033     Cu1041   2.149       .  S
N1034      C1035   1.343       .  A
N1034     Cu1040   2.059       .  S
C1035      C1036   1.374       .  A
C1035      H1038   1.081       .  S
C1036      C1037   1.397       .  A
C1036      C1218   1.457       .  S
C1037      H1039   1.081       .  S
Cu1040     N1043   2.058       .  S
Cu1041     N1051   2.149       .  S
Cu1042     N1044   2.065       .  S
Cu1042     N1050   2.066       .  S
N1043      N1044   1.319       .  A
N1043      C1047   1.344       .  A
N1044      C1045   1.345       .  A
C1045      C1046   1.381       .  A
C1045      H1048   1.081       .  S
C1046      C1047   1.379       .  A
C1046      C2002   1.435       .  S
C1047      H1049   1.081       .  S
N1050      N1051   1.326       .  A
N1050      C1054   1.343       .  A
N1051      C1052   1.360       .  A
C1052      C1053   1.398       .  A
C1052      H1055   1.082       .  S
C1053      C1054   1.374       .  A
C1053      C1230   1.459       .  S
C1054      H1056   1.082       .  S
N1057      N1058   1.325       .  A
N1057      C1061   1.358       .  A
N1057     Cu1065   2.136       .  S
N1058      C1059   1.341       .  A
N1058     Cu1064   2.053       .  S
C1059      C1060   1.373       .  A
C1059      H1062   1.082       .  S
C1060      C1061   1.396       .  A
C1060      C1202   1.452       .  S
C1061      H1063   1.082       .  S
Cu1064     N1067   2.052       .  S
Cu1065     N1075   2.137       .  S
Cu1066     N1068   2.068       .  S
Cu1066     N1074   2.070       .  S
N1067      N1068   1.319       .  A
N1067      C1071   1.343       .  A
N1068      C1069   1.345       .  A
C1069      C1070   1.381       .  A
C1069      H1072   1.082       .  S
C1070      C1071   1.377       .  A
C1070      C1806   1.433       .  S
C1071      H1073   1.082       .  S
N1074      N1075   1.327       .  A
N1074      C1078   1.344       .  A
N1075      C1076   1.357       .  A
C1076      C1077   1.393       .  A
C1076      H1079   1.084       .  S
C1077      C1078   1.376       .  A
C1077      C1188   1.455       .  S
C1078      H1080   1.084       .  S
N1081      N1082   1.325       .  A
N1081      C1085   1.358       .  A
N1081     Cu1089   2.142       .  S
N1082      C1083   1.342       .  A
N1082     Cu1088   2.056       .  S
C1083      C1084   1.373       .  A
C1083      H1086   1.083       .  S
C1084      C1085   1.396       .  A
C1084      C1204   1.454       .  S
C1085      H1087   1.083       .  S
Cu1088     N1091   2.056       .  S
Cu1089     N1099   2.143       .  S
Cu1090     N1092   2.058       .  S
Cu1090     N1098   2.060       .  S
N1091      N1092   1.319       .  A
N1091      C1095   1.342       .  A
N1092      C1093   1.346       .  A
C1093      C1094   1.380       .  A
C1093      H1096   1.082       .  S
C1094      C1095   1.378       .  A
C1094      C1412   1.432       .  S
C1095      H1097   1.082       .  S
N1098      N1099   1.326       .  A
N1098      C1102   1.342       .  A
N1099      C1100   1.358       .  A
C1100      C1101   1.396       .  A
C1100      H1103   1.082       .  S
C1101      C1102   1.373       .  A
C1101      C1174   1.454       .  S
C1102      H1104   1.083       .  S
N1105      N1106   1.323       .  A
N1105      C1109   1.360       .  A
N1105     Cu1113   2.143       .  S
N1106      C1107   1.340       .  A
N1106     Cu1112   2.045       .  S
C1107      C1108   1.371       .  A
C1107      H1110   1.084       .  S
C1108      C1109   1.398       .  A
C1108      C1176   1.454       .  S
C1109      H1111   1.083       .  S
Cu1112     N1115   2.045       .  S
Cu1113     N1123   2.145       .  S
Cu1114     N1116   2.075       .  S
Cu1114     N1122   2.079       .  S
N1115      N1116   1.319       .  A
N1115      C1119   1.341       .  A
N1116      C1117   1.348       .  A
C1117      C1118   1.384       .  A
C1117      H1120   1.081       .  S
C1118      C1119   1.376       .  A
C1118      C1610   1.434       .  S
C1119      H1121   1.080       .  S
N1122      N1123   1.328       .  A
N1122      C1126   1.345       .  A
N1123      C1124   1.358       .  A
C1124      C1125   1.394       .  A
C1124      H1127   1.083       .  S
C1125      C1126   1.377       .  A
C1125      C1160   1.458       .  S
C1126      H1128   1.083       .  S
N1129      N1130   1.326       .  A
N1129      C1133   1.359       .  A
N1129     Cu1137   2.148       .  S
N1130      C1131   1.342       .  A
N1130     Cu1136   2.056       .  S
C1131      C1132   1.372       .  A
C1131      H1134   1.083       .  S
C1132      C1133   1.397       .  A
C1132      C1190   1.455       .  S
C1133      H1135   1.082       .  S
Cu1136     N1139   2.056       .  S
Cu1137     N1147   2.148       .  S
Cu1138     N1140   2.060       .  S
Cu1138     N1146   2.061       .  S
N1139      N1140   1.319       .  A
N1139      C1143   1.344       .  A
N1140      C1141   1.344       .  A
C1141      C1142   1.380       .  A
C1141      H1144   1.081       .  S
C1142      C1143   1.379       .  A
C1142      C1512   1.433       .  S
C1143      H1145   1.081       .  S
N1146      N1147   1.326       .  A
N1146      C1150   1.342       .  A
N1147      C1148   1.359       .  A
C1148      C1149   1.397       .  A
C1148      H1151   1.084       .  S
C1149      C1150   1.373       .  A
C1149      C1162   1.457       .  S
C1150      H1152   1.085       .  S
C1153      C1154   1.405       .  A
C1153      C1158   1.405       .  A
C1153      C1161   1.462       .  S
C1154      C1155   1.406       .  A
C1154      H1163   1.084       .  S
C1155      C1156   1.405       .  A
C1155      H1164   1.083       .  S
C1156      C1157   1.406       .  A
C1156      C1159   1.462       .  S
C1157      C1158   1.409       .  A
C1157      H1165   1.084       .  S
C1158      H1166   1.083       .  S
C1159      C1160   1.219       .  T
C1161      C1162   1.219       .  T
C1167      C1168   1.405       .  A
C1167      C1172   1.405       .  A
C1167      C1175   1.459       .  S
C1168      C1169   1.408   1_554  A
C1168      H1177   1.083       .  S
C1169      C1170   1.406       .  A
C1169      H1178   1.084       .  S
C1170      C1171   1.403       .  A
C1170      C1173   1.458       .  S
C1171      C1172   1.405   1_556  A
C1171      H1179   1.083       .  S
C1172      H1180   1.084       .  S
C1173      C1174   1.217       .  T
C1175      C1176   1.217       .  T
C1181      C1182   1.406       .  A
C1181      C1186   1.404       .  A
C1181      C1189   1.459       .  S
C1182      C1183   1.409       .  A
C1182      H1191   1.085       .  S
C1183      C1184   1.405       .  A
C1183      H1192   1.082       .  S
C1184      C1185   1.404       .  A
C1184      C1187   1.459       .  S
C1185      C1186   1.405       .  A
C1185      H1193   1.085       .  S
C1186      H1194   1.082       .  S
C1187      C1188   1.217       .  T
C1189      C1190   1.218       .  T
C1195      C1196   1.406       .  A
C1195      C1200   1.403       .  A
C1195      C1203   1.458       .  S
C1196      C1197   1.407       .  A
C1196      H1205   1.083       .  S
C1197      C1198   1.404       .  A
C1197      H1206   1.083       .  S
C1198      C1199   1.405       .  A
C1198      C1201   1.457       .  S
C1199      C1200   1.405       .  A
C1199      H1207   1.083       .  S
C1200      H1208   1.084       .  S
C1201      C1202   1.216       .  T
C1203      C1204   1.217       .  T
C1209      C1210   1.404       .  A
C1209      C1214   1.407       .  A
C1209      C1217   1.461       .  S
C1210      C1211   1.406       .  A
C1210      H1219   1.085       .  S
C1211      C1212   1.406       .  A
C1211      H1220   1.081       .  S
C1212      C1213   1.404       .  A
C1212      C1215   1.461       .  S
C1213      C1214   1.408       .  A
C1213      H1221   1.085       .  S
C1214      H1222   1.081       .  S
C1215      C1216   1.219       .  T
C1217      C1218   1.219       .  T
C1223      C1224   1.404       .  A
C1223      C1228   1.407       .  A
C1223      C1231   1.464       .  S
C1224      C1225   1.407       .  A
C1224      H1233   1.083       .  S
C1225      C1226   1.406       .  A
C1225      H1234   1.084       .  S
C1226      C1227   1.405       .  A
C1226      C1229   1.463       .  S
C1227      C1228   1.410       .  A
C1227      H1235   1.083       .  S
C1228      H1236   1.084       .  S
C1229      C1230   1.220       .  T
C1231      C1232   1.220       .  T
C1237      C1238   1.405       .  A
C1237      C1242   1.406       .  A
C1237      C1245   1.463       .  S
C1238      C1239   1.408       .  A
C1238      H1247   1.083       .  S
C1239      C1240   1.407       .  A
C1239      H1248   1.083       .  S
C1240      C1241   1.404       .  A
C1240      C1243   1.464       .  S
C1241      C1242   1.408       .  A
C1241      H1249   1.083       .  S
C1242      H1250   1.083       .  S
C1243      C1244   1.220       .  T
C1245      C1246   1.220       .  T
C1251      C1252   1.405       .  A
C1251      C1256   1.406       .  A
C1251      C1259   1.465       .  S
C1252      C1253   1.410       .  A
C1252      H1261   1.083       .  S
C1253      C1254   1.407       .  A
C1253      H1262   1.083       .  S
C1254      C1255   1.405       .  A
C1254      C1257   1.465       .  S
C1255      C1256   1.408       .  A
C1255      H1263   1.084       .  S
C1256      H1264   1.083       .  S
C1257      C1258   1.221   1_455  T
C1259      C1260   1.221       .  T
C1265      C1266   1.401       .  A
C1265      C1270   1.401       .  A
C1265      C1273   1.436       .  S
C1266      C1267   1.395       .  A
C1266      H1275   1.083       .  S
C1267      C1268   1.399       .  A
C1267      H1276   1.085       .  S
C1268      C1269   1.403       .  A
C1268      C1271   1.437       .  S
C1269      C1270   1.401       .  A
C1269      H1277   1.082       .  S
C1270      H1278   1.084       .  S
C1271      C1272   1.204       .  T
C1273      C1274   1.204       .  T
C1279      C1280   1.404       .  A
C1279      C1284   1.407       .  A
C1279      C1287   1.462       .  S
C1280      C1281   1.406       .  A
C1280      H1289   1.085       .  S
C1281      C1282   1.406       .  A
C1281      H1290   1.081       .  S
C1282      C1283   1.405       .  A
C1282      C1285   1.462       .  S
C1283      C1284   1.409       .  A
C1283      H1291   1.085       .  S
C1284      H1292   1.081       .  S
C1285      C1286   1.219       .  T
C1287      C1288   1.219       .  T
C1293      C1294   1.405       .  A
C1293      C1298   1.404       .  A
C1293      C1301   1.460       .  S
C1294      C1295   1.406       .  A
C1294      H1303   1.084       .  S
C1295      C1296   1.404       .  A
C1295      H1304   1.083       .  S
C1296      C1297   1.406       .  A
C1296      C1299   1.459       .  S
C1297      C1298   1.407       .  A
C1297      H1305   1.084       .  S
C1298      H1306   1.083       .  S
C1299      C1300   1.217       .  T
C1301      C1302   1.218       .  T
C1307      C1308   1.404       .  A
C1307      C1312   1.405       .  A
C1307      C1315   1.459       .  S
C1308      C1309   1.407       .  A
C1308      H1317   1.082       .  S
C1309      C1310   1.406       .  A
C1309      H1318   1.084       .  S
C1310      C1311   1.403       .  A
C1310      C1313   1.458       .  S
C1311      C1312   1.405       .  A
C1311      H1319   1.082       .  S
C1312      H1320   1.085       .  S
C1313      C1314   1.216       .  T
C1315      C1316   1.217       .  T
C1321      C1322   1.405       .  A
C1321      C1326   1.404       .  A
C1321      C1329   1.459       .  S
C1322      C1323   1.408       .  A
C1322      H1331   1.083       .  S
C1323      C1324   1.405       .  A
C1323      H1332   1.083       .  S
C1324      C1325   1.404       .  A
C1324      C1327   1.459       .  S
C1325      C1326   1.405       .  A
C1325      H1333   1.084       .  S
C1326      H1334   1.083       .  S
C1327      C1328   1.217       .  T
C1329      C1330   1.217       .  T
C1335      C1336   1.405       .  A
C1335      C1340   1.406       .  A
C1335      C1343   1.463       .  S
C1336      C1337   1.409       .  A
C1336      H1345   1.083       .  S
C1337      C1338   1.407       .  A
C1337      H1346   1.084       .  S
C1338      C1339   1.404       .  A
C1338      C1341   1.463       .  S
C1339      C1340   1.407       .  A
C1339      H1347   1.083       .  S
C1340      H1348   1.084       .  S
C1341      C1342   1.220       .  T
C1343      C1344   1.220       .  T
C1349      C1350   1.402       .  A
C1349      C1354   1.401       .  A
C1349      C1357   1.441       .  S
C1350      C1351   1.400       .  A
C1350      H1359   1.083       .  S
C1351      C1352   1.401       .  A
C1351      H1360   1.084       .  S
C1352      C1353   1.402       .  A
C1352      C1355   1.441       .  S
C1353      C1354   1.399       .  A
C1353      H1361   1.083       .  S
C1354      H1362   1.084       .  S
C1355      C1356   1.206       .  T
C1357      C1358   1.207       .  T
C1363      C1364   1.405       .  A
C1363      C1368   1.406       .  A
C1363      C1371   1.463       .  S
C1364      C1365   1.408       .  A
C1364      H1373   1.083       .  S
C1365      C1366   1.406       .  A
C1365      H1374   1.083       .  S
C1366      C1367   1.405       .  A
C1366      C1369   1.463       .  S
C1367      C1368   1.408       .  A
C1367      H1375   1.083       .  S
C1368      H1376   1.083       .  S
C1369      C1370   1.220       .  T
C1371      C1372   1.220       .  T
C1377      C1378   1.405       .  A
C1377      C1382   1.405       .  A
C1377      C1385   1.461       .  S
C1378      C1379   1.407       .  A
C1378      H1387   1.082       .  S
C1379      C1380   1.405       .  A
C1379      H1388   1.084       .  S
C1380      C1381   1.405       .  A
C1380      C1383   1.460       .  S
C1381      C1382   1.407       .  A
C1381      H1389   1.082       .  S
C1382      H1390   1.084       .  S
C1383      C1384   1.218       .  T
C1385      C1386   1.218       .  T
C1391      C1392   1.405       .  A
C1391      C1396   1.406       .  A
C1391      C1399   1.463       .  S
C1392      C1393   1.409       .  A
C1392      H1401   1.084       .  S
C1393      C1394   1.407       .  A
C1393      H1402   1.082       .  S
C1394      C1395   1.404       .  A
C1394      C1397   1.463       .  S
C1395      C1396   1.408       .  A
C1395      H1403   1.084       .  S
C1396      H1404   1.083       .  S
C1397      C1398   1.220       .  T
C1399      C1400   1.220       .  T
C1405      C1406   1.401       .  A
C1405      C1410   1.400       .  A
C1405      C1413   1.435       .  S
C1406      C1407   1.395       .  A
C1406      H1415   1.081       .  S
C1407      C1408   1.399       .  A
C1407      H1416   1.086       .  S
C1408      C1409   1.402       .  A
C1408      C1411   1.435       .  S
C1409      C1410   1.399       .  A
C1409      H1417   1.081       .  S
C1410      H1418   1.086       .  S
C1411      C1412   1.203       .  T
C1413      C1414   1.203       .  T
C1419      C1420   1.400       .  A
C1419      C1424   1.401       .  A
C1419      C1427   1.436       .  S
C1420      C1421   1.398       .  A
C1420      H1429   1.082       .  S
C1421      C1422   1.401       .  A
C1421      H1430   1.085       .  S
C1422      C1423   1.400       .  A
C1422      C1425   1.436       .  S
C1423      C1424   1.397       .  A
C1423      H1431   1.082       .  S
C1424      H1432   1.085       .  S
C1425      C1426   1.203       .  T
C1427      C1428   1.204       .  T
C1433      C1434   1.405       .  A
C1433      C1438   1.405       .  A
C1433      C1441   1.461       .  S
C1434      C1435   1.406       .  A
C1434      H1443   1.084       .  S
C1435      C1436   1.405       .  A
C1435      H1444   1.083       .  S
C1436      C1437   1.405       .  A
C1436      C1439   1.461       .  S
C1437      C1438   1.409       .  A
C1437      H1445   1.084       .  S
C1438      H1446   1.083       .  S
C1439      C1440   1.218       .  T
C1441      C1442   1.218       .  T
C1447      C1448   1.401       .  A
C1447      C1452   1.401       .  A
C1447      C1455   1.437       .  S
C1448      C1449   1.396       .  A
C1448      H1457   1.084       .  S
C1449      C1450   1.400       .  A
C1449      H1458   1.083       .  S
C1450      C1451   1.401       .  A
C1450      C1453   1.436       .  S
C1451      C1452   1.400       .  A
C1451      H1459   1.084       .  S
C1452      H1460   1.083       .  S
C1453      C1454   1.204       .  T
C1455      C1456   1.204       .  T
C1461      C1462   1.404       .  A
C1461      C1466   1.406       .  A
C1461      C1469   1.460       .  S
C1462      C1463   1.407       .  A
C1462      H1471   1.085       .  S
C1463      C1464   1.406       .  A
C1463      H1472   1.081       .  S
C1464      C1465   1.403       .  A
C1464      C1467   1.459       .  S
C1465      C1466   1.407       .  A
C1465      H1473   1.085       .  S
C1466      H1474   1.081       .  S
C1467      C1468   1.217       .  T
C1469      C1470   1.218       .  T
C1475      C1476   1.404       .  A
C1475      C1480   1.406       .  A
C1475      C1483   1.459       .  S
C1476      C1477   1.406       .  A
C1476      H1485   1.083       .  S
C1477      C1478   1.405       .  A
C1477      H1486   1.084       .  S
C1478      C1479   1.405       .  A
C1478      C1481   1.459       .  S
C1479      C1480   1.407       .  A
C1479      H1487   1.082       .  S
C1480      H1488   1.084       .  S
C1481      C1482   1.217       .  T
C1483      C1484   1.217       .  T
C1489      C1490   1.404       .  A
C1489      C1494   1.405       .  A
C1489      C1497   1.458       .  S
C1490      C1491   1.406       .  A
C1490      H1499   1.082       .  S
C1491      C1492   1.405       .  A
C1491      H1500   1.085       .  S
C1492      C1493   1.404       .  A
C1492      C1495   1.458       .  S
C1493      C1494   1.406       .  A
C1493      H1501   1.081       .  S
C1494      H1502   1.085       .  S
C1495      C1496   1.217       .  T
C1497      C1498   1.217       .  T
C1503      C1504   1.399       .  A
C1503      C1508   1.402       .  A
C1503      C1511   1.436       .  S
C1504      C1505   1.395       .  A
C1504      H1513   1.084       .  S
C1505      C1506   1.401       .  A
C1505      H1514   1.083       .  S
C1506      C1507   1.401       .  A
C1506      C1509   1.437       .  S
C1507      C1508   1.400       .  A
C1507      H1515   1.084       .  S
C1508      H1516   1.083       .  S
C1509      C1510   1.204       .  T
C1511      C1512   1.204       .  T
C1517      C1518   1.401       .  A
C1517      C1522   1.401       .  A
C1517      C1525   1.436       .  S
C1518      C1519   1.400       .  A
C1518      H1527   1.083       .  S
C1519      C1520   1.402       .  A
C1519      H1528   1.084       .  S
C1520      C1521   1.400       .  A
C1520      C1523   1.436       .  S
C1521      C1522   1.395       .  A
C1521      H1529   1.083       .  S
C1522      H1530   1.084       .  S
C1523      C1524   1.204       .  T
C1525      C1526   1.203       .  T
C1531      C1532   1.403       .  A
C1531      C1536   1.405       .  A
C1531      C1539   1.456       .  S
C1532      C1533   1.403       .  A
C1532      H1541   1.081       .  S
C1533      C1534   1.403       .  A
C1533      H1542   1.086       .  S
C1534      C1535   1.406       .  A
C1534      C1537   1.457       .  S
C1535      C1536   1.408       .  A
C1535      H1543   1.081       .  S
C1536      H1544   1.085       .  S
C1537      C1538   1.216       .  T
C1539      C1540   1.216       .  T
C1545      C1546   1.400       .  A
C1545      C1550   1.401       .  A
C1545      C1553   1.435       .  S
C1546      C1547   1.396       .  A
C1546      H1555   1.083       .  S
C1547      C1548   1.400       .  A
C1547      H1556   1.084       .  S
C1548      C1549   1.401       .  A
C1548      C1551   1.435       .  S
C1549      C1550   1.399       .  A
C1549      H1557   1.083       .  S
C1550      H1558   1.084       .  S
C1551      C1552   1.203       .  T
C1553      C1554   1.203       .  T
C1559      C1560   1.405       .  A
C1559      C1564   1.402       .  A
C1559      C1567   1.454       .  S
C1560      C1561   1.405       .  A
C1560      H1569   1.082       .  S
C1561      C1562   1.402       .  A
C1561      H1570   1.085       .  S
C1562      C1563   1.405       .  A
C1562      C1565   1.454       .  S
C1563      C1564   1.404       .  A
C1563      H1571   1.082       .  S
C1564      H1572   1.085       .  S
C1565      C1566   1.214       .  T
C1567      C1568   1.214       .  T
C1573      C1574   1.405       .  A
C1573      C1578   1.406       .  A
C1573      C1581   1.462       .  S
C1574      C1575   1.408       .  A
C1574      H1583   1.085       .  S
C1575      C1576   1.406       .  A
C1575      H1584   1.081       .  S
C1576      C1577   1.405       .  A
C1576      C1579   1.462       .  S
C1577      C1578   1.407       .  A
C1577      H1585   1.085       .  S
C1578      H1586   1.081       .  S
C1579      C1580   1.219       .  T
C1581      C1582   1.219       .  T
C1587      C1588   1.406       .  A
C1587      C1592   1.404       .  A
C1587      C1595   1.459       .  S
C1588      C1589   1.408       .  A
C1588      H1597   1.082       .  S
C1589      C1590   1.405       .  A
C1589      H1598   1.085       .  S
C1590      C1591   1.405       .  A
C1590      C1593   1.460       .  S
C1591      C1592   1.405       .  A
C1591      H1599   1.082       .  S
C1592      H1600   1.085       .  S
C1593      C1594   1.218       .  T
C1595      C1596   1.217       .  T
C1601      C1602   1.400       .  A
C1601      C1606   1.401       .  A
C1601      C1609   1.437       .  S
C1602      C1603   1.396       .  A
C1602      H1611   1.084       .  S
C1603      C1604   1.400       .  A
C1603      H1612   1.083       .  S
C1604      C1605   1.401       .  A
C1604      C1607   1.436       .  S
C1605      C1606   1.400       .  A
C1605      H1613   1.084       .  S
C1606      H1614   1.083       .  S
C1607      C1608   1.203       .  T
C1609      C1610   1.204       .  T
C1615      C1616   1.406       .  A
C1615      C1620   1.406       .  A
C1615      C1623   1.465       .  S
C1616      C1617   1.410       .  A
C1616      H1625   1.084       .  S
C1617      C1618   1.406       .  A
C1617      H1626   1.083       .  S
C1618      C1619   1.406       .  A
C1618      C1621   1.466       .  S
C1619      C1620   1.409       .  A
C1619      H1627   1.084       .  S
C1620      H1628   1.083       .  S
C1621      C1622   1.222       .  T
C1623      C1624   1.221       .  T
C1629      C1630   1.405       .  A
C1629      C1634   1.407       .  A
C1629      C1637   1.466       .  S
C1630      C1631   1.409       .  A
C1630      H1639   1.083       .  S
C1631      C1632   1.406       .  A
C1631      H1640   1.084       .  S
C1632      C1633   1.406       .  A
C1632      C1635   1.466       .  S
C1633      C1634   1.410       .  A
C1633      H1641   1.083       .  S
C1634      H1642   1.083       .  S
C1635      C1636   1.221       .  T
C1637      C1638   1.222       .  T
C1643      C1644   1.406       .  A
C1643      C1648   1.405       .  A
C1643      C1651   1.463       .  S
C1644      C1645   1.409       .  A
C1644      H1653   1.083       .  S
C1645      C1646   1.406       .  A
C1645      H1654   1.084       .  S
C1646      C1647   1.405       .  A
C1646      C1649   1.463       .  S
C1647      C1648   1.407       .  A
C1647      H1655   1.083       .  S
C1648      H1656   1.084       .  S
C1649      C1650   1.220       .  T
C1651      C1652   1.219       .  T
C1657      C1658   1.406       .  A
C1657      C1662   1.405       .  A
C1657      C1665   1.464       .  S
C1658      C1659   1.410       .  A
C1658      H1667   1.082       .  S
C1659      C1660   1.407       .  A
C1659      H1668   1.084       .  S
C1660      C1661   1.405       .  A
C1660      C1663   1.464       .  S
C1661      C1662   1.407       .  A
C1661      H1669   1.083       .  S
C1662      H1670   1.084       .  S
C1663      C1664   1.220       .  T
C1665      C1666   1.220       .  T
C1671      C1672   1.400       .  A
C1671      C1676   1.402       .  A
C1671      C1679   1.436       .  S
C1672      C1673   1.394       .  A
C1672      H1681   1.084       .  S
C1673      C1674   1.399       .  A
C1673      H1682   1.084       .  S
C1674      C1675   1.402       .  A
C1674      C1677   1.435       .  S
C1675      C1676   1.401       .  A
C1675      H1683   1.083       .  S
C1676      H1684   1.083       .  S
C1677      C1678   1.203       .  T
C1679      C1680   1.204       .  T
C1685      C1686   1.401       .  A
C1685      C1690   1.401       .  A
C1685      C1693   1.437       .  S
C1686      C1687   1.398       .  A
C1686      H1695   1.083       .  S
C1687      C1688   1.401       .  A
C1687      H1696   1.084       .  S
C1688      C1689   1.400       .  A
C1688      C1691   1.437       .  S
C1689      C1690   1.398       .  A
C1689      H1697   1.083       .  S
C1690      H1698   1.084       .  S
C1691      C1692   1.204       .  T
C1693      C1694   1.204       .  T
C1699      C1700   1.406       .  A
C1699      C1704   1.403       .  A
C1699      C1707   1.458       .  S
C1700      C1701   1.406       .  A
C1700      H1709   1.084       .  S
C1701      C1702   1.404   1_556  A
C1701      H1710   1.083   1_556  S
C1702      C1703   1.405   1_554  A
C1702      C1705   1.459       .  S
C1703      C1704   1.406       .  A
C1703      H1711   1.084   1_556  S
C1704      H1712   1.083       .  S
C1705      C1706   1.217       .  T
C1707      C1708   1.216       .  T
C1713      C1714   1.400       .  A
C1713      C1718   1.401       .  A
C1713      C1721   1.436       .  S
C1714      C1715   1.396       .  A
C1714      H1723   1.082       .  S
C1715      C1716   1.400       .  A
C1715      H1724   1.085       .  S
C1716      C1717   1.401       .  A
C1716      C1719   1.436       .  S
C1717      C1718   1.399       .  A
C1717      H1725   1.082   1_545  S
C1718      H1726   1.085       .  S
C1719      C1720   1.203   1_545  T
C1721      C1722   1.203       .  T
C1727      C1728   1.406       .  A
C1727      C1732   1.404       .  A
C1727      C1735   1.461       .  S
C1728      C1729   1.409       .  A
C1728      H1737   1.082       .  S
C1729      C1730   1.405       .  A
C1729      H1738   1.084       .  S
C1730      C1731   1.405       .  A
C1730      C1733   1.461       .  S
C1731      C1732   1.406       .  A
C1731      H1739   1.083       .  S
C1732      H1740   1.084       .  S
C1733      C1734   1.219       .  T
C1735      C1736   1.219       .  T
C1741      C1742   1.403       .  A
C1741      C1746   1.405       .  A
C1741      C1749   1.457       .  S
C1742      C1743   1.403       .  A
C1742      H1751   1.082       .  S
C1743      C1744   1.403       .  A
C1743      H1752   1.085       .  S
C1744      C1745   1.406       .  A
C1744      C1747   1.457       .  S
C1745      C1746   1.408       .  A
C1745      H1753   1.082       .  S
C1746      H1754   1.084       .  S
C1747      C1748   1.216       .  T
C1749      C1750   1.216       .  T
C1755      C1756   1.404       .  A
C1755      C1760   1.406       .  A
C1755      C1763   1.460       .  S
C1756      C1757   1.406       .  A
C1756      H1765   1.084       .  S
C1757      C1758   1.405       .  A
C1757      H1766   1.083       .  S
C1758      C1759   1.404       .  A
C1758      C1761   1.460       .  S
C1759      C1760   1.408       .  A
C1759      H1767   1.084       .  S
C1760      H1768   1.083       .  S
C1761      C1762   1.218       .  T
C1763      C1764   1.218       .  T
C1769      C1770   1.401       .  A
C1769      C1774   1.400       .  A
C1769      C1777   1.435       .  S
C1770      C1771   1.400       .  A
C1770      H1779   1.084       .  S
C1771      C1772   1.402       .  A
C1771      H1780   1.083   1_565  S
C1772      C1773   1.399       .  A
C1772      C1775   1.435   1_565  S
C1773      C1774   1.394       .  A
C1773      H1781   1.084       .  S
C1774      H1782   1.083       .  S
C1775      C1776   1.203       .  T
C1777      C1778   1.203       .  T
C1783      C1784   1.406       .  A
C1783      C1788   1.406       .  A
C1783      C1791   1.466       .  S
C1784      C1785   1.410       .  A
C1784      H1793   1.083       .  S
C1785      C1786   1.406       .  A
C1785      H1794   1.083       .  S
C1786      C1787   1.406       .  A
C1786      C1789   1.465       .  S
C1787      C1788   1.409       .  A
C1787      H1795   1.083       .  S
C1788      H1796   1.083       .  S
C1789      C1790   1.221       .  T
C1791      C1792   1.221       .  T
C1797      C1798   1.401       .  A
C1797      C1802   1.400       .  A
C1797      C1805   1.436       .  S
C1798      C1799   1.398       .  A
C1798      H1807   1.083       .  S
C1799      C1800   1.400       .  A
C1799      H1808   1.084       .  S
C1800      C1801   1.401       .  A
C1800      C1803   1.436       .  S
C1801      C1802   1.397       .  A
C1801      H1809   1.083       .  S
C1802      H1810   1.084       .  S
C1803      C1804   1.203       .  T
C1805      C1806   1.204       .  T
C1811      C1812   1.406       .  A
C1811      C1816   1.406       .  A
C1811      C1819   1.464       .  S
C1812      C1813   1.410       .  A
C1812      H1821   1.083       .  S
C1813      C1814   1.407       .  A
C1813      H1822   1.083       .  S
C1814      C1815   1.405       .  A
C1814      C1817   1.464       .  S
C1815      C1816   1.408       .  A
C1815      H1823   1.084       .  S
C1816      H1824   1.083       .  S
C1817      C1818   1.220       .  T
C1819      C1820   1.221       .  T
C1825      C1826   1.406       .  A
C1825      C1830   1.404       .  A
C1825      C1833   1.462       .  S
C1826      C1827   1.408       .  A
C1826      H1835   1.083       .  S
C1827      C1828   1.405       .  A
C1827      H1836   1.084       .  S
C1828      C1829   1.406       .  A
C1828      C1831   1.462       .  S
C1829      C1830   1.407       .  A
C1829      H1837   1.083       .  S
C1830      H1838   1.084       .  S
C1831      C1832   1.219   1_455  T
C1833      C1834   1.219       .  T
C1839      C1840   1.406       .  A
C1839      C1844   1.404       .  A
C1839      C1847   1.462       .  S
C1840      C1841   1.408       .  A
C1840      H1849   1.084       .  S
C1841      C1842   1.405       .  A
C1841      H1850   1.083       .  S
C1842      C1843   1.406       .  A
C1842      C1845   1.461       .  S
C1843      C1844   1.407       .  A
C1843      H1851   1.084       .  S
C1844      H1852   1.083       .  S
C1845      C1846   1.219       .  T
C1847      C1848   1.219       .  T
C1853      C1854   1.399       .  A
C1853      C1858   1.401       .  A
C1853      C1861   1.432       .  S
C1854      C1855   1.396       .  A
C1854      H1863   1.085       .  S
C1855      C1856   1.401       .  A
C1855      H1864   1.082       .  S
C1856      C1857   1.399       .  A
C1856      C1859   1.431       .  S
C1857      C1858   1.396       .  A
C1857      H1865   1.085       .  S
C1858      H1866   1.082       .  S
C1859      C1860   1.201       .  T
C1861      C1862   1.201       .  T
C1867      C1868   1.403       .  A
C1867      C1872   1.399       .  A
C1867      C1875   1.438       .  S
C1868      C1869   1.403       .  A
C1868      H1877   1.082       .  S
C1869      C1870   1.402       .  A
C1869      H1878   1.084       .  S
C1870      C1871   1.401       .  A
C1870      C1873   1.439       .  S
C1871      C1872   1.394       .  A
C1871      H1879   1.083       .  S
C1872      H1880   1.085       .  S
C1873      C1874   1.205       .  T
C1875      C1876   1.205       .  T
C1881      C1882   1.404       .  A
C1881      C1886   1.404       .  A
C1881      C1889   1.457       .  S
C1882      C1883   1.404       .  A
C1882      H1891   1.085       .  S
C1883      C1884   1.403       .  A
C1883      H1892   1.082       .  S
C1884      C1885   1.405       .  A
C1884      C1887   1.456       .  S
C1885      C1886   1.407       .  A
C1885      H1893   1.085       .  S
C1886      H1894   1.082       .  S
C1887      C1888   1.216       .  T
C1889      C1890   1.216       .  T
C1895      C1896   1.400       .  A
C1895      C1900   1.403       .  A
C1895      C1903   1.439       .  S
C1896      C1897   1.395       .  A
C1896      H1905   1.084       .  S
C1897      C1898   1.400       .  A
C1897      H1906   1.084       .  S
C1898      C1899   1.402       .  A
C1898      C1901   1.438       .  S
C1899      C1900   1.402       .  A
C1899      H1907   1.083       .  S
C1900      H1908   1.083       .  S
C1901      C1902   1.205       .  T
C1903      C1904   1.205       .  T
C1909      C1910   1.405       .  A
C1909      C1914   1.405       .  A
C1909      C1917   1.460       .  S
C1910      C1911   1.407       .  A
C1910      H1919   1.084       .  S
C1911      C1912   1.406       .  A
C1911      H1920   1.083       .  S
C1912      C1913   1.404       .  A
C1912      C1915   1.459       .  S
C1913      C1914   1.406       .  A
C1913      H1921   1.084       .  S
C1914      H1922   1.083       .  S
C1915      C1916   1.218       .  T
C1917      C1918   1.218       .  T
C1923      C1924   1.405       .  A
C1923      C1928   1.404       .  A
C1923      C1931   1.455       .  S
C1924      C1925   1.406       .  A
C1924      H1933   1.084       .  S
C1925      C1926   1.404       .  A
C1925      H1934   1.082       .  S
C1926      C1927   1.404       .  A
C1926      C1929   1.456       .  S
C1927      C1928   1.404       .  A
C1927      H1935   1.084       .  S
C1928      H1936   1.082       .  S
C1929      C1930   1.215       .  T
C1931      C1932   1.215       .  T
C1937      C1938   1.404       .  A
C1937      C1942   1.405       .  A
C1937      C1945   1.458       .  S
C1938      C1939   1.406       .  A
C1938      H1947   1.083       .  S
C1939      C1940   1.405       .  A
C1939      H1948   1.083       .  S
C1940      C1941   1.404       .  A
C1940      C1943   1.457   1_565  S
C1941      C1942   1.406       .  A
C1941      H1949   1.083       .  S
C1942      H1950   1.083       .  S
C1943      C1944   1.216       .  T
C1945      C1946   1.217       .  T
C1951      C1952   1.401       .  A
C1951      C1956   1.400       .  A
C1951      C1959   1.436       .  S
C1952      C1953   1.399       .  A
C1952      H1961   1.083       .  S
C1953      C1954   1.401       .  A
C1953      H1962   1.083       .  S
C1954      C1955   1.401       .  A
C1954      C1957   1.436       .  S
C1955      C1956   1.397       .  A
C1955      H1963   1.084       .  S
C1956      H1964   1.084       .  S
C1957      C1958   1.204       .  T
C1959      C1960   1.204       .  T
C1965      C1966   1.400       .  A
C1965      C1970   1.401       .  A
C1965      C1973   1.435       .  S
C1966      C1967   1.398       .  A
C1966      H1975   1.086       .  S
C1967      C1968   1.401       .  A
C1967      H1976   1.081       .  S
C1968      C1969   1.399       .  A
C1968      C1971   1.435       .  S
C1969      C1970   1.396       .  A
C1969      H1977   1.086       .  S
C1970      H1978   1.081       .  S
C1971      C1972   1.203       .  T
C1973      C1974   1.203       .  T
C1979      C1980   1.404       .  A
C1979      C1984   1.404   1_545  A
C1979      C1987   1.457       .  S
C1980      C1981   1.404       .  A
C1980      H1989   1.081       .  S
C1981      C1982   1.404       .  A
C1981      H1990   1.086       .  S
C1982      C1983   1.405   1_545  A
C1982      C1985   1.457       .  S
C1983      C1984   1.407       .  A
C1983      H1991   1.081       .  S
C1984      H1992   1.086       .  S
C1985      C1986   1.216       .  T
C1987      C1988   1.216       .  T
C1993      C1994   1.400       .  A
C1993      C1998   1.402       .  A
C1993      C2001   1.438       .  S
C1994      C1995   1.397       .  A
C1994      H2003   1.085       .  S
C1995      C1996   1.401       .  A
C1995      H2004   1.083   1_565  S
C1996      C1997   1.401       .  A
C1996      C1999   1.437   1_565  S
C1997      C1998   1.399       .  A
C1997      H2005   1.084       .  S
C1998      H2006   1.082       .  S
C1999      C2000   1.204       .  T
C2001      C2002   1.205       .  T
C2007      C2008   1.404       .  A
C2007      C2012   1.405       .  A
C2007      C2015   1.458       .  S
C2008      C2009   1.404       .  A
C2008      H2017   1.084   1_545  S
C2009      C2010   1.404       .  A
C2009      H2018   1.083       .  S
C2010      C2011   1.405       .  A
C2010      C2013   1.458       .  S
C2011      C2012   1.408       .  A
C2011      H2019   1.084       .  S
C2012      H2020   1.082       .  S
C2013      C2014   1.217       .  T
C2015      C2016   1.216       .  T
C2021      C2022   1.405   1_545  A
C2021      C2026   1.405       .  A
C2021      C2029   1.460       .  S
C2022      C2023   1.408       .  A
C2022      H2031   1.083       .  S
C2023      C2024   1.405   1_565  A
C2023      H2032   1.083       .  S
C2024      C2025   1.405       .  A
C2024      C2027   1.459       .  S
C2025      C2026   1.406       .  A
C2025      H2033   1.083       .  S
C2026      H2034   1.083       .  S
C2027      C2028   1.217       .  T
C2029      C2030   1.218   1_556  T
C2035      C2036   1.406       .  A
C2035      C2040   1.404       .  A
C2035      C2043   1.460       .  S
C2036      C2037   1.407       .  A
C2036      H2045   1.085       .  S
C2037      C2038   1.404       .  A
C2037      H2046   1.082       .  S
C2038      C2039   1.406       .  A
C2038      C2041   1.459       .  S
C2039      C2040   1.407       .  A
C2039      H2047   1.085       .  S
C2040      H2048   1.082       .  S
C2041      C2042   1.217       .  T
C2043      C2044   1.218       .  T
C2049      C2050   1.401       .  A
C2049      C2054   1.400       .  A
C2049      C2057   1.435       .  S
C2050      C2051   1.399       .  A
C2050      H2059   1.084       .  S
C2051      C2052   1.402       .  A
C2051      H2060   1.083       .  S
C2052      C2053   1.399       .  A
C2052      C2055   1.436       .  S
C2053      C2054   1.395       .  A
C2053      H2061   1.084       .  S
C2054      H2062   1.083       .  S
C2055      C2056   1.204       .  T
C2057      C2058   1.203       .  T
C2063      C2064   1.400       .  A
C2063      C2068   1.399       .  A
C2063      C2071   1.429       .  S
C2064      C2065   1.396       .  A
C2064      H2073   1.084       .  S
C2065      C2066   1.400       .  A
C2065      H2074   1.083       .  S
C2066      C2067   1.400       .  A
C2066      C2069   1.430       .  S
C2067      C2068   1.394       .  A
C2067      H2075   1.084       .  S
C2068      H2076   1.083       .  S
C2069      C2070   1.200       .  T
C2071      C2072   1.200       .  T
C2077      C2078   1.407       .  A
C2077      C2082   1.405       .  A
C2077      C2085   1.465       .  S
C2078      C2079   1.410       .  A
C2078      H2087   1.084       .  S
C2079      C2080   1.405       .  A
C2079      H2088   1.083       .  S
C2080      C2081   1.406       .  A
C2080      C2083   1.465       .  S
C2081      C2082   1.408       .  A
C2081      H2089   1.084       .  S
C2082      H2090   1.083       .  S
C2083      C2084   1.221       .  T
C2085      C2086   1.221       .  T
C2091      C2092   1.402       .  A
C2091      C2096   1.401       .  A
C2091      C2099   1.439       .  S
C2092      C2093   1.402       .  A
C2092      H2101   1.084       .  S
C2093      C2094   1.403       .  A
C2093      H2102   1.083       .  S
C2094      C2095   1.399       .  A
C2094      C2097   1.440       .  S
C2095      C2096   1.396       .  A
C2095      H2103   1.084       .  S
C2096      H2104   1.083       .  S
C2097      C2098   1.206       .  T
C2099      C2100   1.205       .  T
C2105      C2106   1.404       .  A
C2105      C2110   1.406       .  A
C2105      C2113   1.459       .  S
C2106      C2107   1.406       .  A
C2106      H2115   1.084       .  S
C2107      C2108   1.406       .  A
C2107      H2116   1.083       .  S
C2108      C2109   1.404       .  A
C2108      C2111   1.460       .  S
C2109      C2110   1.407       .  A
C2109      H2117   1.084       .  S
C2110      H2118   1.083       .  S
C2111      C2112   1.218       .  T
C2113      C2114   1.217       .  T
C2119      C2120   1.399   1_545  A
C2119      C2124   1.402       .  A
C2119      C2127   1.437       .  S
C2120      C2121   1.395   1_565  A
C2120      H2129   1.083       .  S
C2121      C2122   1.400       .  A
C2121      H2130   1.084   1_545  S
C2122      C2123   1.401       .  A
C2122      C2125   1.436       .  S
C2123      C2124   1.400       .  A
C2123      H2131   1.083       .  S
C2124      H2132   1.084       .  S
C2125      C2126   1.203       .  T
C2127      C2128   1.204   1_655  T
C2133      C2134   1.406       .  A
C2133      C2138   1.405       .  A
C2133      C2141   1.463       .  S
C2134      C2135   1.408       .  A
C2134      H2143   1.083       .  S
C2135      C2136   1.407       .  A
C2135      H2144   1.084       .  S
C2136      C2137   1.405       .  A
C2136      C2139   1.463       .  S
C2137      C2138   1.408       .  A
C2137      H2145   1.083       .  S
C2138      H2146   1.083       .  S
C2139      C2140   1.220       .  T
C2141      C2142   1.220       .  T
C2147      C2148   1.405       .  A
C2147      C2152   1.404       .  A
C2147      C2155   1.457       .  S
C2148      C2149   1.405       .  A
C2148      H2157   1.084       .  S
C2149      C2150   1.404       .  A
C2149      H2158   1.083       .  S
C2150      C2151   1.406       .  A
C2150      C2153   1.458       .  S
C2151      C2152   1.407       .  A
C2151      H2159   1.084       .  S
C2152      H2160   1.083       .  S
C2153      C2154   1.217       .  T
C2155      C2156   1.216       .  T
