geometry optimzed in LAMMPS
_audit_creation_date              2020-12-01 
_audit_creation_method            'lammps2cif' 
_symmetry_space_group_name_H-M    'P1' 
_symmetry_Int_Tables_number       1 
_symmetry_cell_setting            triclinic 
loop_ 
_symmetry_equiv_pos_as_xyz 
  x,y,z 
_cell_length_a                    28.4659719 
_cell_length_b                    44.30318621740055 
_cell_length_c                    28.488890381284666 
_cell_angle_alpha                 89.82305511171501 
_cell_angle_beta                  89.7817035823469 
_cell_angle_gamma                 89.8856926280385 
loop_ 
_atom_site_label 
_atom_site_type_symbol 
_atom_site_fract_x 
_atom_site_fract_y 
_atom_site_fract_z 
_atom_site_charge 
O1          O  0.79348117  0.71087587  0.02053866    -0.81300
C2          C  0.89112499  0.65138700  0.87795520     0.98100
O3          O  0.90126191  0.64879524  0.92111053    -0.70400
O4          O  0.91511758  0.69819708  0.96756380    -0.74000
Al5        Al  0.87284145  0.66581324  0.97673498     1.49000
C6          C  0.90920797  0.72583992  0.97507496     0.93300
O7          O  0.81958043  0.73522634  0.89594576    -0.80200
O8          O  0.73498714  0.66704901  0.93365162    -0.73800
Al9        Al  0.80801863  0.72122054  0.95864656     1.90100
O10         O  0.78204873  0.69739394  0.86402252    -0.72900
O11         O  0.80019958  0.62354705  0.92784691    -0.72700
O12         O  0.85006480  0.65841318  0.86522958    -0.78400
O13         O  0.83965857  0.62996555  0.99197985    -0.76600
O14         O  0.82550192  0.68327603  0.94577967    -1.12700
O15         O  0.85219334  0.68017627  0.03712285    -0.71900
C16         C  0.81642658  0.69531810  0.04956977     0.98800
C17         C  0.79691130  0.72418919  0.86195988     0.95200
Al18       Al  0.79464887  0.66313624  0.90152761     1.55600
O19         O  0.86831968  0.73658345  0.97643136    -0.76500
C20         C  0.81554602  0.61327381  0.96604793     0.99400
C21         C  0.71718295  0.69271559  0.94225693     0.94300
O22         O  0.74310137  0.71565451  0.94557996    -0.81800
O23         O  0.78863275  0.29596641  0.99825914    -0.81300
C24         C  0.88292280  0.35670421  0.14256035     0.98100
O25         O  0.89413563  0.35832785  0.09944241    -0.70400
O26         O  0.91020892  0.30780868  0.05699387    -0.74000
Al27       Al  0.86839728  0.33988998  0.04370127     1.49000
C28         C  0.90457749  0.28070138  0.04598893     0.93300
O29         O  0.81555678  0.27172065  0.12176406    -0.80200
O30         O  0.72912406  0.33870328  0.08346707    -0.73800
Al31       Al  0.80323149  0.28531604  0.05990610     1.90100
O32         O  0.77583851  0.30866793  0.15475302    -0.72900
O33         O  0.79253828  0.38283278  0.08822392    -0.72700
O34         O  0.84168872  0.34940339  0.15439244    -0.78400
O35         O  0.83517775  0.37487598  0.02577888    -0.76600
O36         O  0.81998073  0.32310721  0.07334650    -1.12700
O37         O  0.85083898  0.32387297  0.98249194    -0.71900
C38         C  0.81454369  0.30953640  0.96919007     0.98800
C39         C  0.79267344  0.28215766  0.15620343     0.95200
Al40       Al  0.78756514  0.34339414  0.11661268     1.55600
O41         O  0.86373783  0.27042742  0.04117565    -0.76500
C42         C  0.80947890  0.39201225  0.04978140     0.99400
C43         C  0.71196008  0.31293281  0.07530171     0.94300
O44         O  0.73816635  0.29001065  0.07373434    -0.81800
O45         O  0.29033115  0.21289133  0.02263075    -0.81300
C46         C  0.38364522  0.15311126  0.87760901     0.98100
O47         O  0.39399799  0.14982214  0.92071857    -0.70400
O48         O  0.41084781  0.19802481  0.96943114    -0.74000
Al49       Al  0.36683157  0.16639565  0.97747395     1.49000
C50         C  0.40609913  0.22573154  0.97719854     0.93300
O51         O  0.31774111  0.23716745  0.89879426    -0.80200
O52         O  0.22935358  0.17038299  0.93516394    -0.73800
Al53       Al  0.30499898  0.22312875  0.96094160     1.90100
O54         O  0.27653372  0.20144072  0.86580028    -0.72900
O55         O  0.29325434  0.12624499  0.92634558    -0.72700
O56         O  0.34295052  0.16127445  0.86551968    -0.78400
O57         O  0.33195770  0.13090913  0.99140415    -0.76600
O58         O  0.32038525  0.18510124  0.94718653    -1.12700
O59         O  0.34694683  0.18051908  0.03870876    -0.71900
C60         C  0.31259564  0.19691346  0.05159761     0.98800
C61         C  0.29507056  0.22731283  0.86405264     0.95200
Al62       Al  0.28834081  0.16626193  0.90222940     1.55600
O63         O  0.36572921  0.23714235  0.97863421    -0.76500
C64         C  0.30850113  0.11492173  0.96381225     0.99400
C65         C  0.21283374  0.19623043  0.94471264     0.94300
O66         O  0.23993123  0.21867382  0.94811533    -0.81800
O67         O  0.29421278  0.79618646  0.98653786    -0.81300
C68         C  0.39047411  0.85896706  0.12877798     0.98100
O69         O  0.40098595  0.85912750  0.08564667    -0.70400
O70         O  0.41518537  0.80742577  0.04541172    -0.74000
Al71       Al  0.37425851  0.83996158  0.03170465     1.49000
C72         C  0.40874014  0.77998552  0.03649983     0.93300
O73         O  0.31647909  0.77270082  0.11274157    -0.80200
O74         O  0.23452054  0.84085424  0.07412291    -0.73800
Al75       Al  0.30686998  0.78620905  0.04974551     1.90100
O76         O  0.28191690  0.81157625  0.14610641    -0.72900
O77         O  0.29910040  0.88381849  0.07501632    -0.72700
O78         O  0.34936127  0.85190500  0.14176816    -0.78400
O79         O  0.34173840  0.87520871  0.01275392    -0.76600
O80         O  0.32526988  0.82395899  0.06238263    -1.12700
O81         O  0.35707297  0.82357600  0.97191875    -0.71900
C82         C  0.32132164  0.80929563  0.95791675     0.98800
C83         C  0.29627304  0.78455181  0.14788240     0.95200
Al84       Al  0.29404389  0.84532884  0.10552976     1.55600
O85         O  0.36750852  0.76998491  0.03323300    -0.76500
C86         C  0.31572900  0.89249706  0.03622133     0.99400
C87         C  0.21650786  0.81552706  0.06479584     0.94300
O88         O  0.24185839  0.79231026  0.06191906    -0.81800
O89         O  0.24292343  0.29518979  0.52236568    -0.81300
C90         C  0.14673941  0.35674107  0.37980299     0.98100
O91         O  0.13640748  0.35829585  0.42314446    -0.70400
O92         O  0.12160987  0.30935030  0.47084143    -0.74000
Al93       Al  0.16462995  0.34133539  0.47886966     1.49000
C94         C  0.12674192  0.28165590  0.47860667     0.93300
O95         O  0.21426263  0.27176830  0.39865762    -0.80200
O96         O  0.30286825  0.33794414  0.43479907    -0.73800
Al97       Al  0.22728264  0.28524853  0.46073254     1.90100
O98         O  0.25377043  0.30852527  0.36504137    -0.72900
O99         O  0.23955219  0.38269644  0.42949817    -0.72700
O100        O  0.18783423  0.34955020  0.36694110    -0.78400
O101        O  0.19822732  0.37700488  0.49300245    -0.76600
O102        O  0.21134037  0.32344514  0.44767089    -1.12700
O103        O  0.18564976  0.32690816  0.53935914    -0.71900
C104        C  0.22077775  0.31104638  0.55163968     0.98800
C105        C  0.23614926  0.28235846  0.36358277     0.95200
Al106      Al  0.24318292  0.34317386  0.40299086     1.55600
O107        O  0.16724675  0.27054649  0.47980435    -0.76500
C108        C  0.22333367  0.39332237  0.46712486     0.99400
C109        C  0.31882411  0.31186875  0.44407133     0.94300
O110        O  0.29136752  0.28967939  0.44645695    -0.81800
O111        O  0.23805123  0.71231777  0.48499249    -0.81300
C112        C  0.15158246  0.65199234  0.63640454     0.98100
O113        O  0.14077742  0.64887616  0.59346551    -0.70400
O114        O  0.12106481  0.69887980  0.54911104    -0.74000
Al115      Al  0.16392176  0.66705467  0.53620488     1.49000
C116        C  0.12603738  0.72657415  0.54067071     0.93300
O117        O  0.22202257  0.73761070  0.61103464    -0.80200
O118        O  0.30226069  0.66835628  0.57130539    -0.73800
Al119      Al  0.22861780  0.72279399  0.54825504     1.90100
O120        O  0.26106478  0.70019881  0.64259871    -0.72900
O121        O  0.23806343  0.62548209  0.58342361    -0.72700
O122        O  0.19201433  0.66125855  0.64751755    -0.78400
O123        O  0.19920809  0.63215162  0.51871479    -0.76600
O124        O  0.21232166  0.68510765  0.56387540    -1.12700
O125        O  0.17769663  0.68234088  0.47373782    -0.71900
C126        C  0.21154424  0.69788836  0.45779557     0.98800
C127        C  0.24588247  0.72693849  0.64455263     0.95200
Al128      Al  0.24543434  0.66545612  0.60746144     1.55600
O129        O  0.16657619  0.73750596  0.53561250    -0.76500
C130        C  0.22362686  0.61540925  0.54487798     0.99400
C131        C  0.31963054  0.69333907  0.55843644     0.94300
O132        O  0.29459654  0.71683944  0.55608971    -0.81800
O133        O  0.74192188  0.21190455  0.49713037    -0.81300
C134        C  0.64508802  0.15041795  0.63849405     0.98100
O135        O  0.63537109  0.14795946  0.59529750    -0.70400
O136        O  0.62087504  0.19765217  0.55024677    -0.74000
Al137      Al  0.66364251  0.16572570  0.54023157     1.49000
C138        C  0.62650910  0.22528253  0.54273931     0.93300
O139        O  0.71452120  0.23469467  0.62174434    -0.80200
O140        O  0.80183087  0.16804808  0.58393516    -0.73800
Al141      Al  0.72698677  0.22141286  0.55913882     1.90100
O142        O  0.75307746  0.19723253  0.65442943    -0.72900
O143        O  0.73742125  0.12327625  0.58824693    -0.72700
O144        O  0.68614688  0.15723457  0.65147622    -0.78400
O145        O  0.69724458  0.13015477  0.52452408    -0.76600
O146        O  0.71060727  0.18318534  0.57148499    -1.12700
O147        O  0.68400879  0.18100523  0.47998252    -0.71900
C148        C  0.71902885  0.19687829  0.46757970     0.98800
C149        C  0.73616714  0.22362704  0.65651344     0.95200
Al150      Al  0.74188415  0.16294053  0.61563131     1.55600
O151        O  0.66698692  0.23630389  0.54097086    -0.76500
C152        C  0.72109566  0.11308572  0.55038155     0.99400
C153        C  0.81841079  0.19411492  0.57553846     0.94300
O154        O  0.79142387  0.21655598  0.57258267    -0.81800
O155        O  0.74338160  0.79276272  0.51655534    -0.81300
C156        C  0.64659785  0.85564104  0.37573259     0.98100
O157        O  0.63672838  0.85760041  0.41913905    -0.70400
O158        O  0.62143832  0.80633292  0.46188362    -0.74000
Al159      Al  0.66405952  0.83840892  0.47403082     1.49000
C160        C  0.62750258  0.77860206  0.46929635     0.93300
O161        O  0.71587792  0.77043390  0.39343823    -0.80200
O162        O  0.80139110  0.83781207  0.43088809    -0.73800
Al163      Al  0.72859030  0.78347411  0.45501417     1.90100
O164        O  0.75455098  0.80742596  0.35949808    -0.72900
O165        O  0.73678440  0.88134724  0.42600918    -0.72700
O166        O  0.68712991  0.84748844  0.36258285    -0.78400
O167        O  0.69872348  0.87349105  0.49120237    -0.76600
O168        O  0.71132083  0.82144626  0.44263343    -1.12700
O169        O  0.68304897  0.82166123  0.53421728    -0.71900
C170        C  0.71842379  0.80596902  0.54654055     0.98800
C171        C  0.73713908  0.78112624  0.35830069     0.95200
Al172      Al  0.74232295  0.84194763  0.39847227     1.55600
O173        O  0.66840063  0.76816742  0.47297309    -0.76500
C174        C  0.72249431  0.89078478  0.46522519     0.99400
C175        C  0.81899511  0.81227487  0.44038489     0.94300
O176        O  0.79342686  0.78903928  0.44127611    -0.81800
C177        C  0.70911562  0.03594682  0.49048911    -0.13900
C178        C  0.73723863  0.01742563  0.51887765     0.16500
C179        C  0.76242942  0.03088904  0.55592487     0.02800
C180        C  0.75721786  0.06195777  0.56518153    -0.12400
C181        C  0.72822362  0.08053454  0.53733253    -0.03400
C182        C  0.70466794  0.06703787  0.49892330     0.02100
C183        C  0.73925804  0.98431875  0.50844942     0.08900
N184        N  0.79534742  0.01375958  0.58285639     0.65300
H185        H  0.77654175  0.07164460  0.59418372     0.18200
N186        N  0.67550256  0.08434573  0.46821586     0.75700
H187        H  0.68994735  0.02607178  0.46151081     0.09700
C188        C  0.72025933  0.96244189  0.53927312     0.03400
C189        C  0.71696230  0.93212292  0.52517297    -0.05300
C190        C  0.73195831  0.92264778  0.48041453    -0.23700
C191        C  0.75302936  0.94444085  0.45045327     0.12600
C192        C  0.75614986  0.97476473  0.46457797    -0.12900
N193        N  0.70110521  0.97085001  0.58377479     0.64300
H194        H  0.70082090  0.91605957  0.54910976     0.12100
N195        N  0.77019185  0.93654640  0.40492689     0.60900
H196        H  0.77093508  0.99124483  0.44043103     0.08300
O197        O  0.63166395  0.08487248  0.47489570    -0.40500
O198        O  0.69208370  0.09381473  0.42977056    -0.39700
O199        O  0.83519105  0.00800507  0.56545538    -0.39700
O200        O  0.78928390  0.01096220  0.62654837    -0.37400
O201        O  0.74439347  0.94060764  0.36953538    -0.38300
O202        O  0.81346228  0.93146360  0.39918664    -0.34500
O203        O  0.65904068  0.97977564  0.58602120    -0.35900
O204        O  0.72116600  0.96193413  0.62073979    -0.40200
C205        C  0.54499456  0.71729940  0.51419641    -0.13900
C206        C  0.50320002  0.72487855  0.49105870     0.16500
C207        C  0.50378817  0.74827370  0.45737127     0.02800
C208        C  0.54508164  0.76478761  0.44954767    -0.12400
C209        C  0.58627984  0.75837997  0.47465227    -0.03400
C210        C  0.58639257  0.73369075  0.50627099     0.02100
C211        C  0.45821677  0.71295875  0.50980542     0.08900
N212        N  0.46191226  0.75704832  0.43340581     0.65300
H213        H  0.54445477  0.78344281  0.42478632     0.18200
N214        N  0.62677379  0.72682005  0.53401986     0.75700
H215        H  0.54470492  0.69974806  0.54084793     0.09700
C216        C  0.43021321  0.69186937  0.48561970     0.03400
C217        C  0.38615408  0.68361860  0.50397860    -0.05300
C218        C  0.36953999  0.69629959  0.54591281    -0.23700
C219        C  0.39831457  0.71645726  0.57083167     0.12600
C220        C  0.44233408  0.72439012  0.55286873    -0.12900
N221        N  0.44551402  0.67906056  0.44223399     0.64300
H222        H  0.36384325  0.66847421  0.48418937     0.12100
N223        N  0.38258428  0.72975561  0.61378666     0.60900
H224        H  0.46365863  0.74050429  0.57189287     0.08300
O225        O  0.65118431  0.70382297  0.52449562    -0.40500
O226        O  0.63246575  0.74000804  0.57278122    -0.39700
O227        O  0.43540966  0.77673553  0.45146316    -0.39700
O228        O  0.45745054  0.75070231  0.39051078    -0.37400
O229        O  0.39495470  0.71824532  0.65238503    -0.38300
O230        O  0.36447530  0.75577401  0.61326261    -0.34500
O231        O  0.46586342  0.65373784  0.44265297    -0.35900
O232        O  0.42811961  0.68866315  0.40434913    -0.40200
C233        C  0.99937566  0.75410481  0.53805536    -0.13900
C234        C  0.00212849  0.77712357  0.50428974     0.16500
C235        C  0.04632289  0.78576401  0.48674337     0.02800
C236        C  0.08684367  0.77029209  0.50128678    -0.12400
C237        C  0.08395755  0.74591611  0.53305327    -0.03400
C238        C  0.03973696  0.73859799  0.55270265     0.02100
C239        C  0.95816873  0.78890330  0.48339761     0.08900
N240        N  0.05005358  0.80888290  0.45186585     0.65300
H241        H  0.12030975  0.77627285  0.48559824     0.18200
N242        N  0.03515396  0.71537322  0.58733592     0.75700
H243        H  0.96540531  0.74747021  0.55196293     0.09700
C244        C  0.93335111  0.77101975  0.45130941     0.03400
C245        C  0.88959450  0.78045772  0.43515383    -0.05300
C246        C  0.86954216  0.80777624  0.45010222    -0.23700
C247        C  0.89586917  0.82693556  0.47950957     0.12600
C248        C  0.93990018  0.81720649  0.49631421    -0.12900
N249        N  0.95175540  0.74271862  0.43575858     0.64300
H250        H  0.87021729  0.76563110  0.41194143     0.12100
N251        N  0.87763120  0.85548904  0.49417311     0.60900
H252        H  0.95926515  0.83136649  0.52046492     0.08300
O253        O  0.03970179  0.72185780  0.63017387    -0.40500
O254        O  0.01832174  0.69010742  0.57602758    -0.39700
O255        O  0.05357922  0.83609760  0.46424804    -0.39700
O256        O  0.04277172  0.80265208  0.40932263    -0.37400
O257        O  0.85952898  0.85819797  0.53442968    -0.38300
O258        O  0.88760700  0.87886728  0.47082068    -0.34500
O259        O  0.93903010  0.71868477  0.45594699    -0.35900
O260        O  0.97321294  0.74129766  0.39699303    -0.40200
C261        C  0.44584001  0.31565049  0.48649550    -0.13900
C262        C  0.45723067  0.28474898  0.48539600     0.16500
C263        C  0.42564885  0.26430841  0.46536030     0.02800
C264        C  0.38270253  0.27455035  0.44871158    -0.12400
C265        C  0.36914245  0.30503883  0.45268809    -0.03400
C266        C  0.40198643  0.32600152  0.47014561     0.02100
C267        C  0.50238465  0.27353344  0.50396300     0.08900
N268        N  0.43639759  0.23282880  0.46245520     0.65300
H269        H  0.35887823  0.25795240  0.43415575     0.18200
N270        N  0.39127829  0.35747625  0.47224373     0.75700
H271        H  0.47072201  0.33164955  0.50084693     0.09700
C272        C  0.54419729  0.27730466  0.47819600     0.03400
C273        C  0.58551293  0.26312347  0.49330616    -0.05300
C274        C  0.58525367  0.24439689  0.53319183    -0.23700
C275        C  0.54359145  0.24112053  0.55951715     0.12600
C276        C  0.50251940  0.25574752  0.54483121    -0.12900
N277        N  0.54399690  0.29308756  0.43436787     0.64300
H278        H  0.61701028  0.26507055  0.47210168     0.12100
N279        N  0.54259768  0.22275301  0.60091249     0.60900
H280        H  0.47032628  0.25259072  0.56457808     0.08300
O281        O  0.40263962  0.37430256  0.43825741    -0.40500
O282        O  0.38000858  0.36923500  0.51096551    -0.39700
O283        O  0.42281675  0.21530657  0.49474687    -0.39700
O284        O  0.45002585  0.22190131  0.42388237    -0.37400
O285        O  0.56784935  0.22952889  0.63561512    -0.38300
O286        O  0.51985805  0.19833298  0.60125282    -0.34500
O287        O  0.55340613  0.32088803  0.43312579    -0.35900
O288        O  0.52866705  0.28022217  0.39806201    -0.40200
C289        C  0.04478871  0.21961376  0.52383450    -0.13900
C290        C  0.00089134  0.23165827  0.51167551     0.16500
C291        C  0.99916658  0.25867339  0.48530120     0.02800
C292        C  0.04063714  0.27368914  0.47334681    -0.12400
C293        C  0.08461215  0.26262315  0.48741764    -0.03400
C294        C  0.08654074  0.23485209  0.51221661     0.02100
C295        C  0.95736549  0.21899418  0.53284052     0.08900
N296        N  0.95530165  0.27176769  0.47176667     0.65300
H297        H  0.03815845  0.29472189  0.45387537     0.18200
N298        N  0.13002782  0.22306249  0.52927753     0.75700
H299        H  0.04657353  0.19924707  0.54501684     0.09700
C300        C  0.94070015  0.18964866  0.52327240     0.03400
C301        C  0.89677275  0.18033812  0.54105776    -0.05300
C302        C  0.86912546  0.20007542  0.56800992    -0.23700
C303        C  0.88802179  0.22848818  0.58057764     0.12600
C304        C  0.93164642  0.23743999  0.56323880    -0.12900
N305        N  0.96645707  0.16986426  0.49322568     0.64300
H306        H  0.88283627  0.15854235  0.53088543     0.12100
N307        N  0.86226007  0.24932742  0.60903842     0.60900
H308        H  0.94498480  0.25957488  0.57253604     0.08300
O309        O  0.14913370  0.20108548  0.50853897    -0.40500
O310        O  0.14411900  0.23048237  0.56956910    -0.39700
O311        O  0.94018521  0.29472119  0.49322228    -0.39700
O312        O  0.93778770  0.26494760  0.43260716    -0.37400
O313        O  0.86652593  0.24830820  0.65308115    -0.38300
O314        O  0.84452386  0.27248096  0.59017876    -0.34500
O315        O  0.98890281  0.14802590  0.51079060    -0.35900
O316        O  0.95937598  0.17065522  0.44954986    -0.40200
C317        C  0.26148244  0.53227209  0.54768117    -0.13900
C318        C  0.24374075  0.52177657  0.50486883     0.16500
C319        C  0.22260591  0.54272517  0.47398163     0.02800
C320        C  0.21843160  0.57317463  0.48691120    -0.12400
C321        C  0.23401331  0.58353260  0.53079307    -0.03400
C322        C  0.25685280  0.56263330  0.56094763     0.02100
C323        C  0.24246690  0.48857860  0.49606801     0.08900
N324        N  0.20158648  0.53312868  0.43109780     0.65300
H325        H  0.20078301  0.58854952  0.46303179     0.18200
N326        N  0.27373161  0.57133287  0.60609324     0.75700
H327        H  0.27768956  0.51644341  0.57189934     0.09700
C328        C  0.26430640  0.47494260  0.45690852     0.03400
C329        C  0.25841540  0.44390632  0.44871854    -0.05300
C330        C  0.23215445  0.42559909  0.47960681    -0.23700
C331        C  0.21275875  0.43913651  0.52033301     0.12600
C332        C  0.21763639  0.47023618  0.52773973    -0.12900
N333        N  0.29439948  0.49186690  0.42642267     0.64300
H334        H  0.27480917  0.43408812  0.41790566     0.12100
N335        N  0.18783744  0.42181453  0.55466721     0.60900
H336        H  0.20128525  0.48026142  0.55843457     0.08300
O337        O  0.31677673  0.57713684  0.61127064    -0.40500
O338        O  0.24836674  0.56686927  0.64186249    -0.39700
O339        O  0.16140460  0.52117061  0.43226723    -0.39700
O340        O  0.21718865  0.54322877  0.39263163    -0.37400
O341        O  0.20960343  0.41145724  0.58971991    -0.38300
O342        O  0.14351433  0.42214283  0.55498664    -0.34500
O343        O  0.33539514  0.49814066  0.43992634    -0.35900
O344        O  0.28489133  0.49358840  0.38326799    -0.40200
C345        C  0.50918823  0.87352723  0.18765994    -0.13900
C346        C  0.49891509  0.86669783  0.23480423     0.16500
C347        C  0.45147570  0.86129285  0.24719581     0.02800
C348        C  0.41659320  0.86120514  0.21251138    -0.12400
C349        C  0.42744157  0.86529541  0.16478466    -0.03400
C350        C  0.47450650  0.87248224  0.15274875     0.02100
C351        C  0.53784936  0.86512353  0.27022121     0.08900
N352        N  0.43836203  0.85408211  0.29437693     0.65300
H353        H  0.38055747  0.85648043  0.22303821     0.18200
N354        N  0.48806301  0.87846027  0.10529176     0.75700
H355        H  0.54486332  0.87940480  0.17750716     0.09700
C356        C  0.57943273  0.84844802  0.26150691     0.03400
C357        C  0.61469373  0.84679633  0.29563944    -0.05300
C358        C  0.60986908  0.86113108  0.33934986    -0.23700
C359        C  0.56901989  0.87852357  0.34768846     0.12600
C360        C  0.53385256  0.88054280  0.31320601    -0.12900
N361        N  0.58573175  0.83184104  0.21899153     0.64300
H362        H  0.64548005  0.83308123  0.28834024     0.12100
N363        N  0.56325079  0.89502675  0.39031529     0.60900
H364        H  0.50327883  0.89450889  0.32006464     0.08300
O365        O  0.50823906  0.85809671  0.08174151    -0.40500
O366        O  0.48869878  0.90533819  0.09052920    -0.39700
O367        O  0.41295680  0.87222511  0.31729927    -0.39700
O368        O  0.44391013  0.82749316  0.30938447    -0.37400
O369        O  0.57784245  0.92185549  0.39259007    -0.38300
O370        O  0.53609612  0.88508690  0.42184666    -0.34500
O371        O  0.61523593  0.84093023  0.18896410    -0.35900
O372        O  0.57032636  0.80521777  0.21643146    -0.40200
C373        C  0.26445977  0.79146777  0.73165414    -0.13900
C374        C  0.28803963  0.77603953  0.76768353     0.16500
C375        C  0.29691449  0.74497047  0.76304396     0.02800
C376        C  0.28272469  0.72996642  0.72275734    -0.12400
C377        C  0.25871687  0.74498414  0.68643063    -0.03400
C378        C  0.24975706  0.77625123  0.69107134     0.02100
C379        C  0.29772279  0.79113836  0.81267709     0.08900
N380        N  0.31719959  0.72778386  0.80044351     0.65300
H381        H  0.28972477  0.70590590  0.72076694     0.18200
N382        N  0.22540499  0.79277746  0.65555526     0.75700
H383        H  0.25662871  0.81533264  0.73552756     0.09700
C384        C  0.34386243  0.79464118  0.82967447     0.03400
C385        C  0.35093693  0.80213149  0.87680991    -0.05300
C386        C  0.31261829  0.80632223  0.90721708    -0.23700
C387        C  0.26663227  0.80521983  0.88906845     0.12600
C388        C  0.25956674  0.79755903  0.84211697    -0.12900
N389        N  0.38369926  0.79033116  0.79969974     0.64300
H390        H  0.38651352  0.80347761  0.89009620     0.12100
N391        N  0.22678366  0.81200783  0.91775641     0.60900
H392        H  0.22399876  0.79520370  0.82916139     0.08300
O393        O  0.18164929  0.79675429  0.65931855    -0.40500
O394        O  0.24844187  0.80824664  0.62622487    -0.39700
O395        O  0.29144651  0.71944841  0.83420498    -0.39700
O396        O  0.35634988  0.71497590  0.79418008    -0.37400
O397        O  0.21067417  0.83855859  0.91787442    -0.38300
O398        O  0.20197215  0.79075227  0.93379691    -0.34500
O399        O  0.39594965  0.81139146  0.77239445    -0.35900
O400        O  0.41230766  0.76925248  0.80829761    -0.40200
C401        C  0.27086483  0.76258946  0.27465065    -0.13900
C402        C  0.25814307  0.73225765  0.27014026     0.16500
C403        C  0.25917994  0.71883780  0.22542038     0.02800
C404        C  0.27378987  0.73580629  0.18621191    -0.12400
C405        C  0.28601256  0.76642318  0.19062427    -0.03400
C406        C  0.28403197  0.77981758  0.23559438     0.02100
C407        C  0.24527952  0.71554322  0.31347729     0.08900
N408        N  0.24466366  0.68830206  0.21919516     0.65300
H409        H  0.27394241  0.72526388  0.15184928     0.18200
N410        N  0.29634094  0.81070561  0.24266648     0.75700
H411        H  0.27017368  0.77312360  0.30904487     0.09700
C412        C  0.28045355  0.70771896  0.34589953     0.03400
C413        C  0.26827801  0.70017343  0.39201850    -0.05300
C414        C  0.22119167  0.70000120  0.40678134    -0.23700
C415        C  0.18556176  0.70548003  0.37341315     0.12600
C416        C  0.19791171  0.71332023  0.32705569    -0.12900
N417        N  0.32896318  0.70939199  0.33317770     0.64300
H418        H  0.29608816  0.69566610  0.41710240     0.12100
N419        N  0.13723829  0.70638335  0.38714000     0.60900
H420        H  0.17056532  0.71984997  0.30256190     0.08300
O421        O  0.26489572  0.83071535  0.23935758    -0.40500
O422        O  0.33363575  0.81668702  0.26447905    -0.39700
O423        O  0.20341770  0.68290101  0.20554148    -0.39700
O424        O  0.27507929  0.66756485  0.21820172    -0.37400
O425        O  0.10999879  0.68550120  0.37459799    -0.38300
O426        O  0.12027269  0.73031226  0.40419377    -0.34500
O427        O  0.35329586  0.73153386  0.34644988    -0.35900
O428        O  0.34898093  0.68667121  0.31545301    -0.40200
C429        C  0.26405077  0.97148990  0.01999352    -0.13900
C430        C  0.29953625  0.98551526  0.99357228     0.16500
C431        C  0.33840529  0.96827144  0.97854906     0.02800
C432        C  0.34153118  0.93765426  0.99071238    -0.12400
C433        C  0.30720437  0.92381008  0.01908608    -0.03400
C434        C  0.26754752  0.94094788  0.03289645     0.02100
C435        C  0.29781597  0.01866382  0.98597021     0.08900
N436        N  0.37694383  0.98211707  0.95450384     0.65300
H437        H  0.37259346  0.92511793  0.98018299     0.18200
N438        N  0.23055634  0.92774976  0.06000385     0.75700
H439        H  0.23396494  0.98457296  0.03167971     0.09700
C440        C  0.28858186  0.03149822  0.94164708     0.03400
C441        C  0.29036246  0.06291799  0.93576553    -0.05300
C442        C  0.30132779  0.08215268  0.97342059    -0.23700
C443        C  0.30865362  0.06916607  0.01824505     0.12600
C444        C  0.30687373  0.03773983  0.02400688    -0.12900
N445        N  0.27689478  0.01300396  0.90239918     0.64300
H446        H  0.28426838  0.07221310  0.90102698     0.12100
N447        N  0.31747686  0.08746614  0.05843216     0.60900
H448        H  0.31337003  0.02807633  0.05843921     0.08300
O449        O  0.19500605  0.91722204  0.03946135    -0.40500
O450        O  0.22919532  0.93189541  0.10378538    -0.39700
O451        O  0.40743090  0.99617004  0.97785508    -0.39700
O452        O  0.38601974  0.97470263  0.91271290    -0.37400
O453        O  0.28350477  0.09561493  0.08402791    -0.38300
O454        O  0.35886697  0.08987088  0.07364525    -0.34500
O455        O  0.23422458  0.00813091  0.89336333    -0.35900
O456        O  0.30745400  0.00806949  0.87115024    -0.40200
C457        C  0.24348215  0.21729415  0.16007708    -0.13900
C458        C  0.27906129  0.21788711  0.19361334     0.16500
C459        C  0.32407366  0.20686249  0.18224453     0.02800
C460        C  0.33386352  0.19763802  0.13621561    -0.12400
C461        C  0.29913996  0.19941724  0.10147017    -0.03400
C462        C  0.25292609  0.20797152  0.11435787     0.02100
C463        C  0.26950936  0.23368944  0.23790719     0.08900
N464        N  0.36073483  0.20663388  0.21629842     0.65300
H465        H  0.36939563  0.19097929  0.12702887     0.18200
N466        N  0.21523706  0.20766518  0.08134190     0.75700
H467        H  0.20854196  0.22532521  0.16900006     0.09700
C468        C  0.26930780  0.26539110  0.23867000     0.03400
C469        C  0.25666692  0.28045104  0.27953673    -0.05300
C470        C  0.24397559  0.26458038  0.32041392    -0.23700
C471        C  0.24356544  0.23266779  0.31944555     0.12600
C472        C  0.25634854  0.21749397  0.27813314    -0.12900
N473        N  0.28221696  0.28261412  0.19812454     0.64300
H474        H  0.25734605  0.30496061  0.27924178     0.12100
N475        N  0.23186315  0.21537585  0.36020362     0.60900
H476        H  0.25580686  0.19299376  0.27733988     0.08300
O477        O  0.18858380  0.18499220  0.07999955    -0.40500
O478        O  0.20186632  0.23209930  0.06277437    -0.39700
O479        O  0.36955237  0.18263386  0.23855837    -0.39700
O480        O  0.38946097  0.22825809  0.21773277    -0.37400
O481        O  0.19066735  0.20535260  0.36506054    -0.38300
O482        O  0.26428637  0.20510615  0.38580111    -0.34500
O483        O  0.25068627  0.29552756  0.17433757    -0.35900
O484        O  0.32457471  0.29011266  0.19223940    -0.40200
C485        C  0.29159934  0.29359870  0.66044952    -0.13900
C486        C  0.25642387  0.29436702  0.69471408     0.16500
C487        C  0.21143036  0.30532208  0.68318090     0.02800
C488        C  0.20111988  0.31278999  0.63659093    -0.12400
C489        C  0.23516965  0.30937888  0.60128807    -0.03400
C490        C  0.28153989  0.30113492  0.61397409     0.02100
C491        C  0.26512670  0.27847781  0.73922816     0.08900
N492        N  0.17554190  0.30795599  0.71812531     0.65300
H493        H  0.16562123  0.31962784  0.62767757     0.18200
N494        N  0.31861489  0.29970411  0.58004524     0.75700
H495        H  0.32645182  0.28543553  0.66932371     0.09700
C496        C  0.24866860  0.24883626  0.74506187     0.03400
C497        C  0.25939643  0.23294549  0.78570969    -0.05300
C498        C  0.28712183  0.24569028  0.82124381    -0.23700
C499        C  0.30468733  0.27528633  0.81484360     0.12600
C500        C  0.29347964  0.29141706  0.77385869    -0.12900
N501        N  0.22288070  0.23398457  0.70888820     0.64300
H502        H  0.24600524  0.21007422  0.78893519     0.12100
N503        N  0.33439865  0.28905867  0.84887906     0.60900
H504        H  0.30737849  0.31403193  0.76875654     0.08300
O505        O  0.33123015  0.27440960  0.56404911    -0.40500
O506        O  0.34542177  0.32212398  0.57501752    -0.39700
O507        O  0.17147009  0.33234632  0.74052794    -0.39700
O508        O  0.14226996  0.28919356  0.71898910    -0.37400
O509        O  0.37839974  0.28786597  0.84362633    -0.38300
O510        O  0.31697553  0.30712817  0.87836443    -0.34500
O511        O  0.24499796  0.22019248  0.67700572    -0.35900
O512        O  0.17981398  0.22850685  0.71503767    -0.40200
C513        C  0.45225044  0.15693803  0.76230350    -0.13900
C514        C  0.49325938  0.14119707  0.77400697     0.16500
C515        C  0.49750297  0.12853832  0.81916201     0.02800
C516        C  0.46093308  0.13175508  0.85187728    -0.12400
C517        C  0.42004781  0.14808116  0.84077103    -0.03400
C518        C  0.41603149  0.16084765  0.79518593     0.02100
C519        C  0.53318983  0.14117002  0.74047492     0.08900
N520        N  0.53926906  0.11287413  0.83250751     0.65300
H521        H  0.46508314  0.12193316  0.88657159     0.18200
N522        N  0.37746384  0.17999332  0.78288573     0.75700
H523        H  0.44932001  0.16755902  0.72802075     0.09700
C524        C  0.53226258  0.12439302  0.69859420     0.03400
C525        C  0.56901259  0.12730386  0.66570036    -0.05300
C526        C  0.60725998  0.14661872  0.67428237    -0.23700
C527        C  0.60752113  0.16349744  0.71639703     0.12600
C528        C  0.57093396  0.16045566  0.74895068    -0.12900
N529        N  0.49434530  0.10419842  0.68940844     0.64300
H530        H  0.56778859  0.11431992  0.63358005     0.12100
N531        N  0.64290524  0.18547856  0.72543304     0.60900
H532        H  0.57109949  0.17417809  0.78038938     0.08300
O533        O  0.38070181  0.20807934  0.78934059    -0.40500
O534        O  0.34487094  0.16987539  0.75753795    -0.39700
O535        O  0.57208967  0.12705987  0.85222805    -0.39700
O536        O  0.54015327  0.08441169  0.83167607    -0.37400
O537        O  0.63966732  0.21116947  0.70646593    -0.38300
O538        O  0.66916318  0.18207985  0.76061654    -0.34500
O539        O  0.46156370  0.11224252  0.66241494    -0.35900
O540        O  0.49032459  0.08021917  0.71309837    -0.40200
C541        C  0.08422709  0.19059605  0.98255383    -0.13900
C542        C  0.07065914  0.22095876  0.97739467     0.16500
C543        C  0.10177471  0.24138686  0.95577759     0.02800
C544        C  0.14648666  0.23187152  0.94261227    -0.12400
C545        C  0.16189809  0.20218975  0.95100141    -0.03400
C546        C  0.12959894  0.18099106  0.96929669     0.02100
C547        C  0.02670119  0.23232118  0.99908009     0.08900
N548        N  0.08923107  0.27235396  0.94890002     0.65300
H549        H  0.17013068  0.24843671  0.92731462     0.18200
N550        N  0.14289762  0.15025685  0.97687146     0.75700
H551        H  0.06032472  0.17464332  0.99893313     0.09700
C552        C  0.98204287  0.22521935  0.98122158     0.03400
C553        C  0.94209268  0.23976817  0.99929462    -0.05300
C554        C  0.94598859  0.26174162  0.03461774    -0.23700
C555        C  0.99058926  0.26751944  0.05413365     0.12600
C556        C  0.03022993  0.25264920  0.03651413    -0.12900
N557        N  0.97705314  0.20492450  0.94271586     0.64300
H558        H  0.90818554  0.23515273  0.98357847     0.12100
N559        N  0.99635548  0.28856888  0.09158187     0.60900
H560        H  0.06444171  0.25776959  0.05119042     0.08300
O561        O  0.13469111  0.13097171  0.94548218    -0.40500
O562        O  0.15349743  0.14143485  0.01762082    -0.39700
O563        O  0.10329783  0.29186247  0.97778518    -0.39700
O564        O  0.07451889  0.28083720  0.90926966    -0.37400
O565        O  0.01130803  0.31477696  0.08270452    -0.38300
O566        O  0.99650954  0.27909569  0.13339165    -0.34500
O567        O  0.96436429  0.17808506  0.95039263    -0.35900
O568        O  0.97580168  0.21525197  0.90140990    -0.40200
C569        C  0.48801965  0.28681356  0.02373209    -0.13900
C570        C  0.53173658  0.27597033  0.00860440     0.16500
C571        C  0.53360737  0.24994128  0.98037344     0.02800
C572        C  0.49220772  0.23461562  0.96911277    -0.12400
C573        C  0.44836587  0.24458327  0.98584091    -0.03400
C574        C  0.44647856  0.27131892  0.01298097     0.02100
C575        C  0.57517254  0.28858291  0.02912583     0.08900
N576        N  0.57761581  0.23819813  0.96439618     0.65300
H577        H  0.49458937  0.21426609  0.94804761     0.18200
N578        N  0.40344507  0.28146326  0.03360581     0.75700
H579        H  0.48639848  0.30639643  0.04655373     0.09700
C580        C  0.59516219  0.31601777  0.01377794     0.03400
C581        C  0.63806472  0.32575450  0.03277783    -0.05300
C582        C  0.66146703  0.30817365  0.06642580    -0.23700
C583        C  0.63926366  0.28208459  0.08439490     0.12600
C584        C  0.59670884  0.27245636  0.06547850    -0.12900
N585        N  0.57387989  0.33314410  0.97701508     0.64300
H586        H  0.65472339  0.34586420  0.01874299     0.12100
N587        N  0.65978573  0.26510013  0.12188216     0.60900
H588        H  0.58065413  0.25191037  0.07875749     0.08300
O589        O  0.38300383  0.30441268  0.01704658    -0.40500
O590        O  0.39087542  0.27114747  0.07303459    -0.39700
O591        O  0.59622782  0.21625132  0.98572856    -0.39700
O592        O  0.59329583  0.24600318  0.92470432    -0.37400
O593        O  0.65112946  0.27246087  0.16378847    -0.38300
O594        O  0.67903041  0.23999636  0.11350107    -0.34500
O595        O  0.55421650  0.35795787  0.98640595    -0.35900
O596        O  0.58216975  0.32635645  0.93480232    -0.40200
C597        C  0.95107463  0.35600251  0.25857324    -0.13900
C598        C  0.99342160  0.36997955  0.24555687     0.16500
C599        C  0.99806164  0.38080978  0.19903300     0.02800
C600        C  0.96133777  0.37706946  0.16674220    -0.12400
C601        C  0.91923829  0.36256355  0.17939154    -0.03400
C602        C  0.91431492  0.35215065  0.22631418     0.02100
C603        C  0.03394249  0.36970820  0.27907427     0.08900
N604        N  0.04000190  0.39562762  0.18384555     0.65300
H605        H  0.96620414  0.38531390  0.13116902     0.18200
N606        N  0.87379344  0.33559720  0.24109055     0.75700
H607        H  0.94730490  0.34652825  0.29353451     0.09700
C608        C  0.03021068  0.38087942  0.32539142     0.03400
C609        C  0.06760812  0.37718450  0.35706438    -0.05300
C610        C  0.10946472  0.36248539  0.34385429    -0.23700
C611        C  0.11331211  0.35171670  0.29719367     0.12600
C612        C  0.07586985  0.35533229  0.26573801    -0.12900
N613        N  0.98876638  0.39618742  0.34085812     0.64300
H614        H  0.06356555  0.38572133  0.39251501     0.12100
N615        N  0.15351230  0.33504933  0.28189966     0.60900
H616        H  0.07893447  0.34553005  0.23100710     0.08300
O617        O  0.84282781  0.34845851  0.26577643    -0.40500
O618        O  0.87379543  0.30719278  0.23788533    -0.39700
O619        O  0.06819719  0.38194169  0.15700869    -0.39700
O620        O  0.04317472  0.42388990  0.18802290    -0.37400
O621        O  0.15277963  0.30660435  0.28400623    -0.38300
O622        O  0.18436682  0.34798126  0.25713842    -0.34500
O623        O  0.96079058  0.38293851  0.36848704    -0.35900
O624        O  0.98607073  0.42446150  0.33613573    -0.40200
C625        C  0.78914802  0.21798472  0.24559709    -0.13900
C626        C  0.75801555  0.23020028  0.27860445     0.16500
C627        C  0.73806383  0.25879736  0.27092031     0.02800
C628        C  0.74992295  0.27493691  0.23077366    -0.12400
C629        C  0.78199327  0.26334622  0.19777099    -0.03400
C630        C  0.80117506  0.23422559  0.20507260     0.02100
C631        C  0.75124866  0.21517171  0.32395589     0.08900
N632        N  0.70799818  0.27258817  0.30504155     0.65300
H633        H  0.73425210  0.29709331  0.22607949     0.18200
N634        N  0.83371091  0.22115258  0.17267871     0.75700
H635        H  0.80507349  0.19606880  0.25197067     0.09700
C636        C  0.70888934  0.20068946  0.33552832     0.03400
C637        C  0.69943949  0.19322617  0.38242993    -0.05300
C638        C  0.73255000  0.19949157  0.41761135    -0.23700
C639        C  0.77710028  0.21104899  0.40447544     0.12600
C640        C  0.78561786  0.21925625  0.35804643    -0.12900
N641        N  0.67547905  0.19360894  0.29992350     0.64300
H642        H  0.66564230  0.18356395  0.39147584     0.12100
N643        N  0.81414084  0.21462087  0.43774210     0.60900
H644        H  0.81872332  0.22985146  0.34880510     0.08300
O645        O  0.81933804  0.20215563  0.14314123    -0.40500
O646        O  0.87722292  0.22371203  0.17990226    -0.39700
O647        O  0.72602943  0.28737233  0.33817364    -0.39700
O648        O  0.66498924  0.27613087  0.29593293    -0.37400
O649        O  0.84102239  0.19260690  0.44615576    -0.38300
O650        O  0.82595571  0.24074845  0.45062375    -0.34500
O651        O  0.68280800  0.17149156  0.27305090    -0.32700
O652        O  0.64143097  0.21114788  0.29205875    -0.40200
C653        C  0.75890567  0.28727662  0.74363608    -0.13900
C654        C  0.76901690  0.27048635  0.78413813     0.16500
C655        C  0.76522268  0.23890248  0.78312870     0.02800
C656        C  0.75394795  0.22447438  0.74132115    -0.12400
C657        C  0.74396935  0.24092330  0.70027520    -0.03400
C658        C  0.74587269  0.27280859  0.70184395     0.02100
C659        C  0.78140530  0.28585072  0.82818242     0.08900
N660        N  0.77184411  0.22120901  0.82462857     0.65300
H661        H  0.75311357  0.19998628  0.74111243     0.18200
N662        N  0.73658421  0.29075230  0.66119044     0.75700
H663        H  0.76105641  0.31173459  0.74454047     0.09700
C664        C  0.82856384  0.29018484  0.84137805     0.03400
C665        C  0.83906452  0.30059346  0.88656488    -0.05300
C666        C  0.80298906  0.30633201  0.91900060    -0.23700
C667        C  0.75569977  0.30376119  0.90445784     0.12600
C668        C  0.74537587  0.29348291  0.85938064    -0.12900
N669        N  0.86605866  0.28251056  0.81015693     0.64300
H670        H  0.87549466  0.30218093  0.89728806     0.12100
N671        N  0.71772606  0.31095439  0.93542642     0.60900
H672        H  0.70900304  0.29039837  0.84923350     0.08300
O673        O  0.77038787  0.30274194  0.63934336    -0.40500
O674        O  0.69539410  0.30021370  0.65400901    -0.39700
O675        O  0.73645283  0.21296217  0.84815797    -0.39700
O676        O  0.81102654  0.20874164  0.83195092    -0.37400
O677        O  0.69290579  0.28998450  0.95237441    -0.38300
O678        O  0.70302873  0.33780611  0.93738867    -0.34500
O679        O  0.88579225  0.30299622  0.78643570    -0.35900
O680        O  0.88496167  0.25678626  0.81290410    -0.40200
C681        C  0.96617075  0.66209440  0.76840927    -0.13900
C682        C  0.00149519  0.64033307  0.77460530     0.16500
C683        C  0.00011952  0.62195286  0.81524896     0.02800
C684        C  0.96387684  0.62563337  0.84844587    -0.12400
C685        C  0.92827932  0.64718743  0.84178046    -0.03400
C686        C  0.92983933  0.66562106  0.80121522     0.02100
C687        C  0.04094835  0.63908564  0.73991346     0.08900
N688        N  0.03470433  0.59908426  0.82289249     0.65300
H689        H  0.96335899  0.61134046  0.87949081     0.18200
N690        N  0.89704370  0.68972964  0.79470989     0.75700
H691        H  0.96772459  0.67736395  0.73854912     0.09700
C692        C  0.03243464  0.63565173  0.69146180     0.03400
C693        C  0.06923612  0.63875514  0.65901829    -0.05300
C694        C  0.11523468  0.64566897  0.67332128    -0.23700
C695        C  0.12402280  0.64825130  0.72214405     0.12600
C696        C  0.08706304  0.64488566  0.75466186    -0.12900
N697        N  0.98632668  0.62935694  0.67445974     0.64300
H698        H  0.06115817  0.63649010  0.62201801     0.12100
N699        N  0.16974571  0.65526867  0.73947321     0.60900
H700        H  0.09415872  0.64819832  0.79168826     0.08300
O701        O  0.86471011  0.68713147  0.76483108    -0.40500
O702        O  0.90596484  0.71535545  0.81164216    -0.39700
O703        O  0.06588288  0.60306289  0.85361163    -0.39700
O704        O  0.02779204  0.57289254  0.80712098    -0.37400
O705        O  0.17996056  0.68231590  0.74865399    -0.38300
O706        O  0.19564542  0.63430678  0.75472605    -0.34500
O707        O  0.96292088  0.65013437  0.65509980    -0.35900
O708        O  0.97385974  0.60228472  0.66905452    -0.40200
C709        C  0.99062858  0.78673903  0.02330661    -0.13900
C710        C  0.03415033  0.77723182  0.00546835     0.16500
C711        C  0.03582961  0.75206043  0.97542399     0.02800
C712        C  0.99453080  0.73646442  0.96458704    -0.12400
C713        C  0.95094255  0.74526602  0.98345049    -0.03400
C714        C  0.94916079  0.77102675  0.01273940     0.02100
C715        C  0.07802333  0.79083689  0.02367370     0.08900
N716        N  0.07963275  0.74111250  0.95764886     0.65300
H717        H  0.99684539  0.71673086  0.94212065     0.18200
N718        N  0.90642004  0.77999369  0.03522733     0.75700
H719        H  0.98915629  0.80567050  0.04744312     0.09700
C720        C  0.10114261  0.81481926  0.00058407     0.03400
C721        C  0.14455071  0.82526804  0.01749688    -0.05300
C722        C  0.16569113  0.81159305  0.05657358    -0.23700
C723        C  0.14111831  0.78879848  0.08106876     0.12600
C724        C  0.09768429  0.77867842  0.06457442    -0.12900
N725        N  0.08211066  0.82770558  0.95875134     0.64300
H726        H  0.16325118  0.84261734  0.99819071     0.12100
N727        N  0.16059395  0.77523316  0.12225133     0.60900
H728        H  0.07979877  0.76057548  0.08304247     0.08300
O729        O  0.88445314  0.80284224  0.02036781    -0.40500
O730        O  0.89570412  0.76882052  0.07463436    -0.39700
O731        O  0.09982217  0.71942793  0.97817341    -0.39700
O732        O  0.09269083  0.74857844  0.91687900    -0.37400
O733        O  0.15401067  0.78746585  0.16167728    -0.38300
O734        O  0.17742569  0.74889823  0.12030531    -0.34500
O735        O  0.06266901  0.85329537  0.96032283    -0.35900
O736        O  0.09200670  0.81620300  0.91947145    -0.40200
C737        C  0.60124434  0.73338208  0.95040196    -0.13900
C738        C  0.57701558  0.71557862  0.98306966     0.16500
C739        C  0.59562045  0.68713143  0.99560946     0.02800
C740        C  0.64006678  0.67824744  0.97859469    -0.12400
C741        C  0.66610918  0.69747017  0.94919310    -0.03400
C742        C  0.64508870  0.72452270  0.93313294     0.02100
C743        C  0.53328904  0.72811240  0.00398835     0.08900
N744        N  0.57104727  0.66785381  0.02748484     0.65300
H745        H  0.65548037  0.65726390  0.99086101     0.18200
N746        N  0.66808143  0.74335149  0.89930202     0.75700
H747        H  0.58639256  0.75475708  0.93899772     0.09700
C748        C  0.53532294  0.75362262  0.03335544     0.03400
C749        C  0.49415583  0.76916967  0.04528500    -0.05300
C750        C  0.45022261  0.76009777  0.02807789    -0.23700
C751        C  0.44800953  0.73381265  0.99988134     0.12600
C752        C  0.48939813  0.71798372  0.98850689    -0.12900
N753        N  0.57938876  0.76481036  0.04962730     0.64300
H754        H  0.49689322  0.78914446  0.06706006     0.12100
N755        N  0.40494540  0.72454236  0.97877518     0.60900
H756        H  0.48756505  0.69885176  0.96488327     0.08300
O757        O  0.68754876  0.76745923  0.91235292    -0.40500
O758        O  0.66027245  0.73926531  0.85622833    -0.39700
O759        O  0.54948639  0.64514729  0.01194950    -0.39700
O760        O  0.57820527  0.67017859  0.07099772    -0.37400
O761        O  0.39277867  0.73592693  0.94000418    -0.38300
O762        O  0.38441758  0.70117092  0.99368086    -0.34500
O763        O  0.59730251  0.78777260  0.03036849    -0.35900
O764        O  0.59563692  0.75540905  0.08814140    -0.40200
C765        C  0.81811177  0.53717882  0.03020623    -0.13900
C766        C  0.79702523  0.51824332  0.99721104     0.16500
C767        C  0.77908498  0.53090380  0.95557074     0.02800
C768        C  0.78392990  0.56197353  0.94693844    -0.12400
C769        C  0.80668878  0.58103583  0.97916815    -0.03400
C770        C  0.82291588  0.56823628  0.02184124     0.02100
C771        C  0.79685746  0.48520859  0.00615725     0.08900
N772        N  0.75663428  0.51243531  0.92134093     0.65300
H773        H  0.77079108  0.57102411  0.91407122     0.18200
N774        N  0.84481706  0.58623336  0.05701484     0.75700
H775        H  0.83178180  0.52762324  0.06253360     0.09700
C776        C  0.83511393  0.46726365  0.99188880     0.03400
C777        C  0.83734156  0.43685823  0.00511811    -0.05300
C778        C  0.80229186  0.42365690  0.03337031    -0.23700
C779        C  0.76320372  0.44149609  0.04669377     0.12600
C780        C  0.76084445  0.47203609  0.03302340    -0.12900
N781        N  0.87328439  0.48008047  0.96599799     0.64300
H782        H  0.86794680  0.42380344  0.99468626     0.12100
N783        N  0.72548068  0.42892712  0.07351314     0.60900
H784        H  0.73120041  0.48571685  0.04423878     0.08300
O785        O  0.88893764  0.58571715  0.06106599    -0.40500
O786        O  0.82009823  0.59729742  0.08957245    -0.39700
O787        O  0.71240714  0.51255915  0.91856280    -0.39700
O788        O  0.78058639  0.50148257  0.88813774    -0.37400
O789        O  0.72267386  0.43425817  0.11691324    -0.38300
O790        O  0.69085383  0.41745419  0.05262602    -0.34500
O791        O  0.90864630  0.48990203  0.98767434    -0.35900
O792        O  0.87564954  0.47626131  0.92218922    -0.40200
C793        C  0.78216354  0.78280565  0.65776870    -0.13900
C794        C  0.74622223  0.78534710  0.69096658     0.16500
C795        C  0.70217277  0.79694807  0.67743945     0.02800
C796        C  0.69446415  0.80500267  0.63053305    -0.12400
C797        C  0.72982983  0.80117688  0.59659167    -0.03400
C798        C  0.77450236  0.79023344  0.61086562     0.02100
C799        C  0.75465717  0.77224572  0.73772942     0.08900
N800        N  0.66494920  0.80046056  0.71076608     0.65300
H801        H  0.66004505  0.81327028  0.62038625     0.18200
N802        N  0.81225870  0.78559094  0.57833571     0.75700
H803        H  0.81597002  0.77351285  0.66796750     0.09700
C804        C  0.73457962  0.74436138  0.74995777     0.03400
C805        C  0.74882752  0.72982229  0.79074320    -0.05300
C806        C  0.78357021  0.74208055  0.82006525    -0.23700
C807        C  0.80299196  0.77042402  0.80837152     0.12600
C808        C  0.78851821  0.78516715  0.76719063    -0.12900
N809        N  0.70240311  0.72927394  0.71959282     0.64300
H810        H  0.73283453  0.70816685  0.79876895     0.12100
N811        N  0.83842681  0.78399565  0.83663195     0.60900
H812        H  0.80483469  0.80641432  0.75732650     0.08300
O813        O  0.81571348  0.76052664  0.55763947    -0.40500
O814        O  0.84795988  0.80232126  0.58066890    -0.39700
O815        O  0.66451097  0.82335666  0.73697987    -0.39700
O816        O  0.62796108  0.78508462  0.70640648    -0.37400
O817        O  0.88111394  0.78011609  0.82616247    -0.38300
O818        O  0.82720430  0.80476015  0.86475471    -0.34500
O819        O  0.71842679  0.71326566  0.68662977    -0.35900
O820        O  0.66061467  0.72525112  0.73313593    -0.40200
C821        C  0.74350194  0.71123201  0.15689642    -0.13900
C822        C  0.77873864  0.71468811  0.19042169     0.16500
C823        C  0.82516419  0.70602478  0.17975910     0.02800
C824        C  0.83659685  0.69709282  0.13406289    -0.12400
C825        C  0.80207472  0.69665086  0.09912672    -0.03400
C826        C  0.75465635  0.70193978  0.11153792     0.02100
C827        C  0.76729063  0.73112950  0.23364933     0.08900
N828        N  0.86152321  0.70838887  0.21392491     0.65300
H829        H  0.87306030  0.69266450  0.12516617     0.18200
N830        N  0.71758278  0.69829078  0.07834356     0.75700
H831        H  0.70742192  0.71707441  0.16547068     0.09700
C832        C  0.75937563  0.76246780  0.23182405     0.03400
C833        C  0.74816002  0.77806157  0.27269461    -0.05300
C834        C  0.74384091  0.76287773  0.31568899    -0.23700
C835        C  0.74985928  0.73116440  0.31717768     0.12600
C836        C  0.76213721  0.71561295  0.27617224    -0.12900
N837        N  0.76318057  0.77877659  0.18862302     0.64300
H838        H  0.74316156  0.80235030  0.27081467     0.12100
N839        N  0.74486297  0.71457191  0.35998597     0.60900
H840        H  0.76736446  0.69133444  0.27741538     0.08300
O841        O  0.69764084  0.72129066  0.06131222    -0.40500
O842        O  0.69826670  0.67282218  0.07444145    -0.39700
O843        O  0.87494605  0.68502853  0.23552204    -0.39700
O844        O  0.88606440  0.73203739  0.21566448    -0.37400
O845        O  0.70547460  0.70334737  0.37047576    -0.38300
O846        O  0.78105578  0.70582468  0.38158556    -0.34500
O847        O  0.72639927  0.78703996  0.16755704    -0.35900
O848        O  0.80237678  0.78944953  0.17620384    -0.40200
loop_ 
_geom_bond_atom_site_label_1 
_geom_bond_atom_site_label_2 
_geom_bond_distance 
_geom_bond_site_symmetry_2 
_ccdc_geom_bond_type 
O1           C16   1.259       .  A
O1           Al9   1.866   1_554  S
C2           O12   1.263       .  A
C2            O3   1.269       .  A
C2          C685   1.486       .  S
O3           Al5   1.931       .  S
O4            C6   1.255       .  A
O4           Al5   1.891       .  S
Al5          O13   1.898       .  S
Al5          O15   1.926   1_556  S
Al5          O14   1.787       .  S
C6           O19   1.257       .  A
C6          C713   1.489       .  S
O7           C17   1.266       .  A
O7           Al9   1.917       .  S
O8           C21   1.268       .  A
O8          Al18   1.934       .  S
Al9          O22   1.903       .  S
Al9          O19   1.918       .  S
Al9          O14   1.791       .  S
O10          C17   1.262       .  A
O10         Al18   1.888       .  S
O11          C20   1.258       .  A
O11         Al18   1.912       .  S
O12         Al18   1.894       .  S
O13          C20   1.254       .  A
O14         Al18   1.782       .  S
O15          C16   1.268       .  A
C16         C825   1.470       .  S
C17         C806   1.481       .  S
C20         C769   1.497       .  S
C21          O22   1.261       .  A
C21         C741   1.481       .  S
O23          C38   1.259       .  A
O23         Al31   1.865   1_556  S
C24          O34   1.262       .  A
C24          O25   1.270       .  A
C24         C601   1.499       .  S
O25         Al27   1.935       .  S
O26          C28   1.253       .  A
O26         Al27   1.890       .  S
Al27         O35   1.884       .  S
Al27         O37   1.952   1_554  S
Al27         O36   1.777       .  S
C28          O41   1.257       .  A
C28         C554   1.482       .  S
O29          C39   1.264       .  A
O29         Al31   1.894       .  S
O30          C43   1.265       .  A
O30         Al40   1.928       .  S
Al31         O44   1.903       .  S
Al31         O41   1.918       .  S
Al31         O36   1.785       .  S
O32          C39   1.268       .  A
O32         Al40   1.910       .  S
O33          C42   1.261       .  A
O33         Al40   1.928       .  S
O34         Al40   1.902       .  S
O35          C42   1.256       .  A
O36         Al40   1.781       .  S
O37          C38   1.273       .  A
C38         C666   1.476       .  S
C39         C629   1.477       .  S
C42         C778   1.490       .  S
C43          O44   1.260       .  A
C43         C582   1.476       .  S
O45          C60   1.258       .  A
O45         Al53   1.860   1_554  S
C46          O56   1.262       .  A
C46          O47   1.272       .  A
C46         C517   1.489       .  S
O47         Al49   1.936       .  S
O48          C50   1.255       .  A
O48         Al49   1.894       .  S
Al49         O57   1.901       .  S
Al49         O59   1.937   1_556  S
Al49         O58   1.783       .  S
C50          O63   1.255       .  A
C50         C573   1.488       .  S
O51          C61   1.263       .  A
O51         Al53   1.908       .  S
O52          C65   1.267       .  A
O52         Al62   1.929       .  S
Al53         O66   1.900       .  S
Al53         O63   1.908       .  S
Al53         O58   1.784       .  S
O54          C61   1.264       .  A
O54         Al62   1.900       .  S
O55          C64   1.256       .  A
O55         Al62   1.904       .  S
O56         Al62   1.883       .  S
O57          C64   1.255       .  A
O58         Al62   1.785       .  S
O59          C60   1.271       .  A
C60         C461   1.475       .  S
C61         C498   1.482       .  S
C64         C442   1.491       .  S
C65          O66   1.264       .  A
C65         C545   1.484       .  S
O67          C82   1.262       .  A
O67         Al75   1.889   1_556  S
C68          O78   1.266       .  A
C68          O69   1.264       .  A
C68         C349   1.500       .  S
O69         Al71   1.919       .  S
O70          C72   1.257       .  A
O70         Al71   1.892       .  S
Al71         O79   1.892       .  S
Al71         O81   1.919   1_554  S
Al71         O80   1.789       .  S
C72          O85   1.259       .  A
C72         C750   1.491       .  S
O73          C83   1.267       .  A
O73         Al75   1.911       .  S
O74          C87   1.264       .  A
O74         Al84   1.930       .  S
Al75         O88   1.900       .  S
Al75         O85   1.926       .  S
Al75         O80   1.792       .  S
O76          C83   1.265       .  A
O76         Al84   1.918       .  S
O77          C86   1.260       .  A
O77         Al84   1.917       .  S
O78         Al84   1.910       .  S
O79          C86   1.257       .  A
O80         Al84   1.787       .  S
O81          C82   1.266       .  A
C82         C386   1.473       .  S
C83         C405   1.485       .  S
C86         C433   1.489       .  S
C87          O88   1.258       .  A
C87         C722   1.477       .  S
O89         C104   1.259       .  A
O89         Al97   1.867       .  S
C90         O100   1.265       .  A
C90          O91   1.270       .  A
C90         C610   1.498       .  S
O91         Al93   1.931       .  S
O92          C94   1.254       .  A
O92         Al93   1.890       .  S
Al93        O101   1.894       .  S
Al93        O103   1.933       .  S
Al93        O102   1.783       .  S
C94         O107   1.253       .  A
C94         C293   1.488       .  S
O95         C105   1.265       .  A
O95         Al97   1.906       .  S
O96         C109   1.268       .  A
O96        Al106   1.942       .  S
Al97        O110   1.878       .  S
Al97        O107   1.907       .  S
Al97        O102   1.790       .  S
O98         C105   1.265       .  A
O98        Al106   1.903       .  S
O99         C108   1.258       .  A
O99        Al106   1.911       .  S
O100       Al106   1.904       .  S
O101        C108   1.254       .  A
O102       Al106   1.787       .  S
O103        C104   1.271       .  A
C104        C489   1.476       .  S
C105        C470   1.478       .  S
C108        C330   1.497       .  S
C109        O110   1.259       .  A
C109        C265   1.485       .  S
O111        C126   1.260       .  A
O111       Al119   1.881       .  S
C112        O122   1.264       .  A
C112        O113   1.270       .  A
C112        C694   1.499       .  S
O113       Al115   1.931       .  S
O114        C116   1.258       .  A
O114       Al115   1.899       .  S
Al115       O123   1.909       .  S
Al115       O125   1.941       .  S
Al115       O124   1.782       .  S
C116        O129   1.260       .  A
C116        C237   1.488       .  S
O117        C127   1.264       .  A
O117       Al119   1.916       .  S
O118        C131   1.266       .  A
O118       Al128   1.919       .  S
Al119       O132   1.910       .  S
Al119       O129   1.916       .  S
Al119       O124   1.788       .  S
O120        C127   1.262       .  A
O120       Al128   1.893       .  S
O121        C130   1.257       .  A
O121       Al128   1.913       .  S
O122       Al128   1.907       .  S
O123        C130   1.260       .  A
O124       Al128   1.785       .  S
O125        C126   1.267       .  A
C126        C414   1.481       .  S
C127        C377   1.485       .  S
C130        C321   1.498       .  S
C131        O132   1.262       .  A
C131        C218   1.470       .  S
O133        C148   1.259       .  A
O133       Al141   1.865       .  S
C134        O144   1.265       .  A
C134        O135   1.267       .  A
C134        C526   1.490       .  S
O135       Al137   1.927       .  S
O136        C138   1.253       .  A
O136       Al137   1.886       .  S
Al137       O145   1.896       .  S
Al137       O147   1.931       .  S
Al137       O146   1.788       .  S
C138        O151   1.253       .  A
C138        C274   1.472       .  S
O139        C149   1.266       .  A
O139       Al141   1.912       .  S
O140        C153   1.270       .  A
O140       Al150   1.941       .  S
Al141       O154   1.887       .  S
Al141       O151   1.903       .  S
Al141       O146   1.791       .  S
O142        C149   1.265       .  A
O142       Al150   1.910       .  S
O143        C152   1.261       .  A
O143       Al150   1.929       .  S
O144       Al150   1.900       .  S
O145        C152   1.255       .  A
O146       Al150   1.782       .  S
O147        C148   1.270       .  A
C148        C638   1.477       .  S
C149        C657   1.483       .  S
C152        C181   1.504       .  S
C153        O154   1.258       .  A
C153        C302   1.483       .  S
O155        C170   1.254       .  A
O155       Al163   1.852       .  S
C156        O166   1.264       .  A
C156        O157   1.270       .  A
C156        C358   1.494       .  S
O157       Al159   1.942       .  S
O158        C160   1.258       .  A
O158       Al159   1.904       .  S
Al159       O167   1.909       .  S
Al159       O169   1.944       .  S
Al159       O168   1.779       .  S
C160        O173   1.256       .  A
C160        C209   1.485       .  S
O161        C171   1.260       .  A
O161       Al163   1.885       .  S
O162        C175   1.265       .  A
O162       Al172   1.930       .  S
Al163       O176   1.902       .  S
Al163       O173   1.911       .  S
Al163       O168   1.786       .  S
O164        C171   1.268       .  A
O164       Al172   1.923       .  S
O165        C174   1.260       .  A
O165       Al172   1.922       .  S
O166       Al172   1.893       .  S
O167        C174   1.260       .  A
O168       Al172   1.782       .  S
O169        C170   1.272       .  A
C170        C797   1.478       .  S
C171        C834   1.472       .  S
C174        C190   1.503       .  S
C175        O176   1.262       .  A
C175        C246   1.479       .  S
C177        C178   1.402       .  A
C177        C182   1.404       .  A
C177        H187   1.085       .  S
C178        C183   1.498   1_545  S
C178        C179   1.413       .  A
C179        C180   1.410       .  A
C179        N184   1.429       .  S
C180        C181   1.409       .  A
C180        H185   1.084       .  S
C181        C182   1.420       .  A
C182        N186   1.429       .  S
C183        C188   1.413       .  A
C183        C192   1.404       .  A
N184        O199   1.262       .  A
N184        O200   1.262       .  A
N186        O197   1.262       .  A
N186        O198   1.262       .  A
C188        C189   1.407       .  A
C188        N193   1.428       .  S
C189        C190   1.408       .  A
C189        H194   1.086       .  S
C190        C191   1.419       .  A
C191        C192   1.407       .  A
C191        N195   1.428       .  S
C192        H196   1.086       .  S
N193        O203   1.262       .  A
N193        O204   1.262       .  A
N195        O201   1.262       .  A
N195        O202   1.262       .  A
C205        C206   1.402       .  A
C205        C210   1.403       .  A
C205        H215   1.085       .  S
C206        C211   1.483       .  S
C206        C207   1.410       .  A
C207        C208   1.403       .  A
C207        N212   1.429       .  S
C208        C209   1.404       .  A
C208        H213   1.085       .  S
C209        C210   1.415       .  A
C210        N214   1.429       .  S
C211        C216   1.412       .  A
C211        C220   1.402       .  A
N212        O227   1.262       .  A
N212        O228   1.262       .  A
N214        O225   1.262       .  A
N214        O226   1.262       .  A
C216        C217   1.406       .  A
C216        N221   1.428       .  S
C217        C218   1.402       .  A
C217        H222   1.085       .  S
C218        C219   1.408       .  A
C219        C220   1.397       .  A
C219        N223   1.430       .  S
C220        H224   1.086       .  S
N221        O231   1.262       .  A
N221        O232   1.262       .  A
N223        O229   1.262       .  A
N223        O230   1.262       .  A
C233        C234   1.402   1_655  A
C233        C238   1.402   1_655  A
C233        H243   1.084       .  S
C234        C239   1.481   1_455  S
C234        C235   1.405       .  A
C235        C236   1.404       .  A
C235        N240   1.429       .  S
C236        C237   1.409       .  A
C236        H241   1.084       .  S
C237        C238   1.414       .  A
C238        N242   1.429       .  S
C239        C244   1.405       .  A
C239        C248   1.406       .  A
N240        O255   1.262       .  A
N240        O256   1.262       .  A
N242        O253   1.262       .  A
N242        O254   1.262       .  A
C244        C245   1.393       .  A
C244        N249   1.429       .  S
C245        C246   1.404       .  A
C245        H250   1.086       .  S
C246        C247   1.413       .  A
C247        C248   1.410       .  A
C247        N251   1.429       .  S
C248        H252   1.085       .  S
N249        O259   1.262       .  A
N249        O260   1.262       .  A
N251        O257   1.261       .  A
N251        O258   1.262       .  A
C261        C262   1.407       .  A
C261        C266   1.409       .  A
C261        H271   1.085       .  S
C262        C267   1.476       .  S
C262        C263   1.402       .  A
C263        C264   1.388       .  A
C263        N268   1.430       .  S
C264        C265   1.409       .  A
C264        H269   1.086       .  S
C265        C266   1.412       .  A
C266        N270   1.428       .  S
C267        C272   1.406       .  A
C267        C276   1.404       .  A
N268        O283   1.262       .  A
N268        O284   1.262       .  A
N270        O281   1.262       .  A
N270        O282   1.262       .  A
C272        C273   1.401       .  A
C272        N277   1.429       .  S
C273        C274   1.405       .  A
C273        H278   1.083       .  S
C274        C275   1.408       .  A
C275        C276   1.400       .  A
C275        N279   1.431       .  S
C276        H280   1.083       .  S
N277        O287   1.261       .  A
N277        O288   1.262       .  A
N279        O285   1.262       .  A
N279        O286   1.262       .  A
C289        C290   1.402       .  A
C289        C294   1.406       .  A
C289        H299   1.085       .  S
C290        C295   1.486   1_455  S
C290        C291   1.412   1_455  A
C291        C292   1.397   1_655  A
C291        N296   1.430       .  S
C292        C293   1.403       .  A
C292        H297   1.085       .  S
C293        C294   1.418       .  A
C294        N298   1.429       .  S
C295        C300   1.413       .  A
C295        C304   1.397       .  A
N296        O311   1.262       .  A
N296        O312   1.261       .  A
N298        O309   1.262       .  A
N298        O310   1.262       .  A
C300        C301   1.409       .  A
C300        N305   1.427       .  S
C301        C302   1.404       .  A
C301        H306   1.085       .  S
C302        C303   1.417       .  A
C303        C304   1.393       .  A
C303        N307   1.430       .  S
C304        H308   1.086       .  S
N305        O315   1.262       .  A
N305        O316   1.262       .  A
N307        O313   1.262       .  A
N307        O314   1.262       .  A
C317        C318   1.403       .  A
C317        C322   1.404       .  A
C317        H327   1.086       .  S
C318        C323   1.493       .  S
C318        C319   1.412       .  A
C319        C320   1.404       .  A
C319        N324   1.429       .  S
C320        C321   1.407       .  A
C320        H325   1.085       .  S
C321        C322   1.419       .  A
C322        N326   1.429       .  S
C323        C328   1.412       .  A
C323        C332   1.402       .  A
N324        O339   1.262       .  A
N324        O340   1.262       .  A
N326        O337   1.262       .  A
N326        O338   1.262       .  A
C328        C329   1.406       .  A
C328        N333   1.429       .  S
C329        C330   1.409       .  A
C329        H334   1.084       .  S
C330        C331   1.417       .  A
C331        C332   1.402       .  A
C331        N335   1.429       .  S
C332        H336   1.085       .  S
N333        O343   1.262       .  A
N333        O344   1.262       .  A
N335        O341   1.262       .  A
N335        O342   1.262       .  A
C345        C346   1.406       .  A
C345        C350   1.405       .  A
C345        H355   1.087       .  S
C346        C351   1.503       .  S
C346        C347   1.415       .  A
C347        C348   1.404       .  A
C347        N352   1.429       .  S
C348        C349   1.404       .  A
C348        H353   1.088       .  S
C349        C350   1.418       .  A
C350        N354   1.429       .  S
C351        C356   1.416       .  A
C351        C360   1.408       .  A
N352        O367   1.262       .  A
N352        O368   1.262       .  A
N354        O365   1.262       .  A
N354        O366   1.262       .  A
C356        C357   1.402       .  A
C356        N361   1.430       .  S
C357        C358   1.406       .  A
C357        H362   1.085       .  S
C358        C359   1.413       .  A
C359        C360   1.408       .  A
C359        N363   1.428       .  S
C360        H364   1.084       .  S
N361        O371   1.262       .  A
N361        O372   1.262       .  A
N363        O369   1.262       .  A
N363        O370   1.262       .  A
C373        C374   1.404       .  A
C373        C378   1.406       .  A
C373        H383   1.086       .  S
C374        C379   1.475       .  S
C374        C375   1.405       .  A
C375        C376   1.390       .  A
C375        N380   1.431       .  S
C376        C377   1.407       .  A
C376        H381   1.086       .  S
C377        C378   1.415       .  A
C378        N382   1.428       .  S
C379        C384   1.411       .  A
C379        C388   1.399       .  A
N380        O395   1.262       .  A
N380        O396   1.262       .  A
N382        O393   1.262       .  A
N382        O394   1.262       .  A
C384        C385   1.400       .  A
C384        N389   1.430       .  S
C385        C386   1.403       .  A
C385        H390   1.084       .  S
C386        C387   1.410       .  A
C387        C388   1.396       .  A
C387        N391   1.428       .  S
C388        H392   1.084       .  S
N389        O399   1.262       .  A
N389        O400   1.262       .  A
N391        O397   1.262       .  A
N391        O398   1.262       .  A
C401        C402   1.399       .  A
C401        C406   1.398       .  A
C401        H411   1.087       .  S
C402        C407   1.483       .  S
C402        C403   1.408       .  A
C403        C404   1.407       .  A
C403        N408   1.427       .  S
C404        C405   1.407       .  A
C404        H409   1.086       .  S
C405        C406   1.414       .  A
C406        N410   1.428       .  S
C407        C412   1.407       .  A
C407        C416   1.405       .  A
N408        O423   1.262       .  A
N408        O424   1.261       .  A
N410        O421   1.262       .  A
N410        O422   1.261       .  A
C412        C413   1.397       .  A
C412        N417   1.428       .  S
C413        C414   1.403       .  A
C413        H418   1.086       .  S
C414        C415   1.413       .  A
C415        C416   1.408       .  A
C415        N419   1.429       .  S
C416        H420   1.086       .  S
N417        O427   1.262       .  A
N417        O428   1.262       .  A
N419        O425   1.262       .  A
N419        O426   1.262       .  A
C429        C430   1.402   1_554  A
C429        C434   1.404       .  A
C429        H439   1.085       .  S
C430        C435   1.485   1_565  S
C430        C431   1.409       .  A
C431        C432   1.402       .  A
C431        N436   1.429       .  S
C432        C433   1.406   1_556  A
C432        H437   1.085       .  S
C433        C434   1.414       .  A
C434        N438   1.428       .  S
C435        C440   1.409       .  A
C435        C444   1.401   1_556  A
N436        O451   1.262       .  A
N436        O452   1.262       .  A
N438        O449   1.262       .  A
N438        O450   1.262       .  A
C440        C441   1.403       .  A
C440        N445   1.429       .  S
C441        C442   1.408       .  A
C441        H446   1.085       .  S
C442        C443   1.415   1_556  A
C443        C444   1.402       .  A
C443        N447   1.428       .  S
C444        H448   1.085       .  S
N445        O455   1.262       .  A
N445        O456   1.262       .  A
N447        O453   1.262       .  A
N447        O454   1.262       .  A
C457        C458   1.395       .  A
C457        C462   1.393       .  A
C457        H467   1.085       .  S
C458        C463   1.469       .  S
C458        C459   1.407       .  A
C459        C460   1.402       .  A
C459        N464   1.428       .  S
C460        C461   1.403       .  A
C460        H465   1.084       .  S
C461        C462   1.416       .  A
C462        N466   1.430       .  S
C463        C468   1.405       .  A
C463        C472   1.400       .  A
N464        O479   1.262       .  A
N464        O480   1.262       .  A
N466        O477   1.261       .  A
N466        O478   1.262       .  A
C468        C469   1.390       .  A
C468        N473   1.430       .  S
C469        C470   1.405       .  A
C469        H474   1.086       .  S
C470        C471   1.414       .  A
C471        C472   1.404       .  A
C471        N475   1.428       .  S
C472        H476   1.086       .  S
N473        O483   1.262       .  A
N473        O484   1.262       .  A
N475        O481   1.262       .  A
N475        O482   1.262       .  A
C485        C486   1.396       .  A
C485        C490   1.395       .  A
C485        H495   1.086       .  S
C486        C491   1.470       .  S
C486        C487   1.408       .  A
C487        C488   1.399       .  A
C487        N492   1.429       .  S
C488        C489   1.402       .  A
C488        H493   1.085       .  S
C489        C490   1.417       .  A
C490        N494   1.430       .  S
C491        C496   1.404       .  A
C491        C500   1.402       .  A
N492        O507   1.262       .  A
N492        O508   1.262       .  A
N494        O505   1.262       .  A
N494        O506   1.261       .  A
C496        C497   1.388       .  A
C496        N501   1.430       .  S
C497        C498   1.406       .  A
C497        H502   1.087       .  S
C498        C499   1.415       .  A
C499        C500   1.404       .  A
C499        N503   1.428       .  S
C500        H504   1.087       .  S
N501        O511   1.262       .  A
N501        O512   1.262       .  A
N503        O509   1.262       .  A
N503        O510   1.262       .  A
C513        C514   1.399       .  A
C513        C518   1.401       .  A
C513        H523   1.086       .  S
C514        C519   1.482       .  S
C514        C515   1.407       .  A
C515        C516   1.402       .  A
C515        N520   1.428       .  S
C516        C517   1.406       .  A
C516        H521   1.085       .  S
C517        C518   1.420       .  A
C518        N522   1.430       .  S
C519        C524   1.408       .  A
C519        C528   1.396       .  A
N520        O535   1.262       .  A
N520        O536   1.261       .  A
N522        O533   1.262       .  A
N522        O534   1.262       .  A
C524        C525   1.408       .  A
C524        N529   1.429       .  S
C525        C526   1.409       .  A
C525        H530   1.083       .  S
C526        C527   1.416       .  A
C527        C528   1.398       .  A
C527        N531   1.427       .  S
C528        H532   1.084       .  S
N529        O539   1.262       .  A
N529        O540   1.262       .  A
N531        O537   1.262       .  A
N531        O538   1.261       .  A
C541        C542   1.406       .  A
C541        C546   1.410       .  A
C541        H551   1.085       .  S
C542        C547   1.481       .  S
C542        C543   1.407       .  A
C543        C544   1.391       .  A
C543        N548   1.430       .  S
C544        C545   1.405       .  A
C544        H549   1.086       .  S
C545        C546   1.413       .  A
C546        N550   1.429       .  S
C547        C552   1.408   1_455  A
C547        C556   1.402   1_556  A
N548        O563   1.262       .  A
N548        O564   1.262       .  A
N550        O561   1.261       .  A
N550        O562   1.261   1_556  A
C552        C553   1.403       .  A
C552        N557   1.428       .  S
C553        C554   1.407   1_556  A
C553        H558   1.086       .  S
C554        C555   1.412       .  A
C555        C556   1.398   1_655  A
C555        N559   1.429       .  S
C556        H560   1.086       .  S
N557        O567   1.262       .  A
N557        O568   1.262       .  A
N559        O565   1.262   1_655  A
N559        O566   1.262       .  A
C569        C570   1.400       .  A
C569        C574   1.404       .  A
C569        H579   1.087       .  S
C570        C575   1.481       .  S
C570        C571   1.409   1_554  A
C571        C572   1.400       .  A
C571        N576   1.429       .  S
C572        C573   1.405       .  A
C572        H577   1.086       .  S
C573        C574   1.417   1_556  A
C574        N578   1.429       .  S
C575        C580   1.411       .  A
C575        C584   1.399       .  A
N576        O591   1.262       .  A
N576        O592   1.262       .  A
N578        O589   1.262       .  A
N578        O590   1.262       .  A
C580        C581   1.407       .  A
C580        N585   1.427   1_554  S
C581        C582   1.403       .  A
C581        H586   1.085       .  S
C582        C583   1.412       .  A
C583        C584   1.396       .  A
C583        N587   1.430       .  S
C584        H588   1.086       .  S
N585        O595   1.262       .  A
N585        O596   1.262       .  A
N587        O593   1.262       .  A
N587        O594   1.262       .  A
C597        C598   1.404       .  A
C597        C602   1.406       .  A
C597        H607   1.085       .  S
C598        C603   1.500   1_655  S
C598        C599   1.414       .  A
C599        C600   1.406       .  A
C599        N604   1.429   1_655  S
C600        C601   1.406       .  A
C600        H605   1.085       .  S
C601        C602   1.419       .  A
C602        N606   1.429       .  S
C603        C608   1.414       .  A
C603        C612   1.403       .  A
N604        O619   1.262       .  A
N604        O620   1.262       .  A
N606        O617   1.262       .  A
N606        O618   1.262       .  A
C608        C609   1.407       .  A
C608        N613   1.428   1_455  S
C609        C610   1.407       .  A
C609        H614   1.085       .  S
C610        C611   1.417       .  A
C611        C612   1.404       .  A
C611        N615   1.428       .  S
C612        H616   1.085       .  S
N613        O623   1.262       .  A
N613        O624   1.262       .  A
N615        O621   1.262       .  A
N615        O622   1.262       .  A
C625        C626   1.399       .  A
C625        C630   1.400       .  A
C625        H635   1.086       .  S
C626        C631   1.464       .  S
C626        C627   1.404       .  A
C627        C628   1.388       .  A
C627        N632   1.430       .  S
C628        C629   1.406       .  A
C628        H633   1.085       .  S
C629        C630   1.415       .  A
C630        N634   1.428       .  S
C631        C636   1.405       .  A
C631        C640   1.394       .  A
N632        O647   1.262       .  A
N632        O648   1.262       .  A
N634        O645   1.262       .  A
N634        O646   1.262       .  A
C636        C637   1.401       .  A
C636        N641   1.429       .  S
C637        C638   1.407       .  A
C637        H642   1.084       .  S
C638        C639   1.417       .  A
C639        C640   1.391       .  A
C639        N643   1.430       .  S
C640        H644   1.085       .  S
N641        O651   1.262       .  A
N641        O652   1.261       .  A
N643        O649   1.261       .  A
N643        O650   1.262       .  A
C653        C654   1.401       .  A
C653        C658   1.405       .  A
C653        H663   1.086       .  S
C654        C659   1.474       .  S
C654        C655   1.404       .  A
C655        C656   1.392       .  A
C655        N660   1.429       .  S
C656        C657   1.406       .  A
C656        H661   1.085       .  S
C657        C658   1.415       .  A
C658        N662   1.428       .  S
C659        C664   1.409       .  A
C659        C668   1.396       .  A
N660        O675   1.262       .  A
N660        O676   1.261       .  A
N662        O673   1.261       .  A
N662        O674   1.262       .  A
C664        C665   1.402       .  A
C664        N669   1.428       .  S
C665        C666   1.402       .  A
C665        H670   1.085       .  S
C666        C667   1.415       .  A
C667        C668   1.396       .  A
C667        N671   1.429       .  S
C668        H672   1.085       .  S
N669        O679   1.261       .  A
N669        O680   1.262       .  A
N671        O677   1.262       .  A
N671        O678   1.262       .  A
C681        C682   1.403   1_655  A
C681        C686   1.400       .  A
C681        H691   1.086       .  S
C682        C687   1.494       .  S
C682        C683   1.414       .  A
C683        C684   1.406   1_455  A
C683        N688   1.428       .  S
C684        C685   1.404       .  A
C684        H689   1.086       .  S
C685        C686   1.414       .  A
C686        N690   1.429       .  S
C687        C692   1.411       .  A
C687        C696   1.404       .  A
N688        O703   1.262       .  A
N688        O704   1.262       .  A
N690        O701   1.262       .  A
N690        O702   1.262       .  A
C692        C693   1.401       .  A
C692        N697   1.429   1_455  S
C693        C694   1.407       .  A
C693        H698   1.085       .  S
C694        C695   1.419       .  A
C695        C696   1.407       .  A
C695        N699   1.429       .  S
C696        H700   1.085       .  S
N697        O707   1.262       .  A
N697        O708   1.262       .  A
N699        O705   1.262       .  A
N699        O706   1.262       .  A
C709        C710   1.402   1_655  A
C709        C714   1.406       .  A
C709        H719   1.087       .  S
C710        C715   1.484       .  S
C710        C711   1.409   1_554  A
C711        C712   1.401   1_455  A
C711        N716   1.429       .  S
C712        C713   1.405       .  A
C712        H717   1.087       .  S
C713        C714   1.417   1_556  A
C714        N718   1.429       .  S
C715        C720   1.411       .  A
C715        C724   1.400       .  A
N716        O731   1.262       .  A
N716        O732   1.262       .  A
N718        O729   1.262       .  A
N718        O730   1.262       .  A
C720        C721   1.408       .  A
C720        N725   1.428   1_554  S
C721        C722   1.403       .  A
C721        H726   1.083   1_554  S
C722        C723   1.411       .  A
C723        C724   1.399       .  A
C723        N727   1.430       .  S
C724        H728   1.085       .  S
N725        O735   1.261       .  A
N725        O736   1.262       .  A
N727        O733   1.262       .  A
N727        O734   1.262       .  A
C737        C738   1.399       .  A
C737        C742   1.396       .  A
C737        H747   1.086       .  S
C738        C743   1.485   1_556  S
C738        C739   1.412       .  A
C739        C740   1.409       .  A
C739        N744   1.427   1_556  S
C740        C741   1.404       .  A
C740        H745   1.085       .  S
C741        C742   1.414       .  A
C742        N746   1.430       .  S
C743        C748   1.410       .  A
C743        C752   1.402   1_554  A
N744        O759   1.262       .  A
N744        O760   1.262       .  A
N746        O757   1.262       .  A
N746        O758   1.262       .  A
C748        C749   1.399       .  A
C748        N753   1.429       .  S
C749        C750   1.405       .  A
C749        H754   1.085       .  S
C750        C751   1.418   1_554  A
C751        C752   1.407       .  A
C751        N755   1.429       .  S
C752        H756   1.085       .  S
N753        O763   1.262       .  A
N753        O764   1.262       .  A
N755        O761   1.262       .  A
N755        O762   1.262       .  A
C765        C766   1.400   1_554  A
C765        C770   1.403       .  A
C765        H775   1.086       .  S
C766        C771   1.485   1_556  S
C766        C767   1.408       .  A
C767        C768   1.405       .  A
C767        N772   1.429       .  S
C768        C769   1.410       .  A
C768        H773   1.085       .  S
C769        C770   1.418   1_556  A
C770        N774   1.428       .  S
C771        C776   1.407   1_554  A
C771        C780   1.404       .  A
N772        O787   1.262       .  A
N772        O788   1.262       .  A
N774        O785   1.262       .  A
N774        O786   1.262       .  A
C776        C777   1.399   1_556  A
C776        N781   1.429       .  S
C777        C778   1.407       .  A
C777        H782   1.086   1_554  S
C778        C779   1.415       .  A
C779        C780   1.408       .  A
C779        N783   1.428       .  S
C780        H784   1.086       .  S
N781        O791   1.262       .  A
N781        O792   1.262       .  A
N783        O789   1.262       .  A
N783        O790   1.262       .  A
C793        C794   1.395       .  A
C793        C798   1.393       .  A
C793        H803   1.086       .  S
C794        C799   1.472       .  S
C794        C795   1.409       .  A
C795        C796   1.400       .  A
C795        N800   1.429       .  S
C796        C797   1.404       .  A
C796        H801   1.085       .  S
C797        C798   1.420       .  A
C798        N802   1.431       .  S
C799        C804   1.405       .  A
C799        C808   1.404       .  A
N800        O815   1.261       .  A
N800        O816   1.262       .  A
N802        O813   1.262       .  A
N802        O814   1.261       .  A
C804        C805   1.388       .  A
C804        N809   1.430       .  S
C805        C806   1.408       .  A
C805        H810   1.086       .  S
C806        C807   1.411       .  A
C807        C808   1.404       .  A
C807        N811   1.428       .  S
C808        H812   1.086       .  S
N809        O819   1.262       .  A
N809        O820   1.262       .  A
N811        O817   1.262       .  A
N811        O818   1.262       .  A
C821        C822   1.397       .  A
C821        C826   1.393       .  A
C821        H831   1.086       .  S
C822        C827   1.468       .  S
C822        C823   1.408       .  A
C823        C824   1.399       .  A
C823        N828   1.428       .  S
C824        C825   1.402       .  A
C824        H829   1.085       .  S
C825        C826   1.413       .  A
C826        N830   1.429       .  S
C827        C832   1.407       .  A
C827        C836   1.398       .  A
N828        O843   1.262       .  A
N828        O844   1.262       .  A
N830        O841   1.262       .  A
N830        O842   1.262       .  A
C832        C833   1.391       .  A
C832        N837   1.429       .  S
C833        C834   1.401       .  A
C833        H838   1.086       .  S
C834        C835   1.416       .  A
C835        C836   1.401       .  A
C835        N839   1.429       .  S
C836        H840   1.086       .  S
N837        O847   1.262       .  A
N837        O848   1.262       .  A
N839        O845   1.262       .  A
N839        O846   1.262       .  A
