geometry optimzed in LAMMPS
_audit_creation_date              2020-12-01 
_audit_creation_method            'lammps2cif' 
_symmetry_space_group_name_H-M    'P1' 
_symmetry_Int_Tables_number       1 
_symmetry_cell_setting            triclinic 
loop_ 
_symmetry_equiv_pos_as_xyz 
  x,y,z 
_cell_length_a                    28.92547659 
_cell_length_b                    47.00827857902737 
_cell_length_c                    31.094934918267903 
_cell_angle_alpha                 90.13196918844255 
_cell_angle_beta                  107.79556637354017 
_cell_angle_gamma                 89.77209925411344 
loop_ 
_atom_site_label 
_atom_site_type_symbol 
_atom_site_fract_x 
_atom_site_fract_y 
_atom_site_fract_z 
_atom_site_charge 
Fe1        Fe  0.75195153  0.58067295  0.74713014     1.65800
Fe2        Fe  0.66728327  0.53082394  0.74837850     1.73200
Fe3        Fe  0.63222427  0.59244051  0.69230528     1.54400
O4          O  0.66331759  0.63067655  0.71880616    -0.81400
O5          O  0.63578684  0.51872995  0.68210450    -0.79700
O6          O  0.73816533  0.62184487  0.76285247    -0.83900
O7          O  0.74596718  0.59247737  0.68102663    -0.78700
O8          O  0.59319184  0.59126788  0.73781608    -0.80500
O9          O  0.73068628  0.50949413  0.74854984    -0.83300
C10         C  0.71065825  0.59593158  0.64485003     0.97500
C11         C  0.70430422  0.63901028  0.74396558     1.04900
O12         O  0.68427366  0.56820211  0.72969231    -1.12200
O13         O  0.69836777  0.54170029  0.81449616    -0.74700
O14         O  0.76125780  0.56965471  0.81432150    -0.78200
O15         O  0.66643164  0.59490001  0.64374507    -0.78900
C16         C  0.73620911  0.55583309  0.83474998     0.96400
O17         O  0.77843414  0.54212898  0.73345467    -0.76800
O18         O  0.60031942  0.54495138  0.75241906    -0.82000
C19         C  0.60264270  0.53227848  0.65290167     0.99000
C20         C  0.57779904  0.56847831  0.75038738     1.04900
O21         O  0.59350143  0.55831261  0.65768676    -0.77600
C22         C  0.76913755  0.51655250  0.73993041     1.03200
Fe23       Fe  0.75044277  0.58737137  0.24864231     1.65800
Fe24       Fe  0.83678085  0.53632749  0.25464047     1.73200
Fe25       Fe  0.86893194  0.59942655  0.30947282     1.54400
O26         O  0.84239346  0.63736647  0.27721372    -0.81400
O27         O  0.86917499  0.52509521  0.32098411    -0.79700
O28         O  0.76542030  0.62904880  0.23984774    -0.83900
O29         O  0.74986032  0.59629845  0.31366379    -0.78700
O30         O  0.91536614  0.59521860  0.27047219    -0.80500
O31         O  0.77443157  0.51512186  0.25695979    -0.83300
C32         C  0.78331089  0.60220682  0.35002527     0.97500
C33         C  0.80061671  0.64592384  0.25399475     1.04900
O34         O  0.81856152  0.57447597  0.27076737    -1.12200
O35         O  0.80658304  0.54592155  0.18774007    -0.74700
O36         O  0.74880617  0.57912305  0.18241246    -0.78200
O37         O  0.82790105  0.60462441  0.35265238    -0.78900
C38         C  0.77428227  0.56314401  0.16511806     0.96400
O39         O  0.72028894  0.54880985  0.25472676    -0.76800
O40         O  0.90317239  0.54981167  0.24984224    -0.82000
C41         C  0.89798984  0.53958219  0.35231768     0.99000
C42         C  0.92840811  0.57235410  0.25544949     1.04900
O43         O  0.90343934  0.56616264  0.34937053    -0.77600
C44         C  0.73258923  0.52297713  0.25715753     1.03200
Fe45       Fe  0.24889983  0.41546511  0.24830071     1.65800
Fe46       Fe  0.33848992  0.46371827  0.25854485     1.73200
Fe47       Fe  0.36553483  0.39697089  0.30433708     1.54400
O48         O  0.32206853  0.38805854  0.34484650    -0.81400
O49         O  0.40143778  0.44923433  0.24823209    -0.79700
O50         O  0.24897729  0.40799827  0.31359811    -0.83900
O51         O  0.25972040  0.37315767  0.24074775    -0.78700
O52         O  0.39980222  0.42673000  0.35123664    -0.80500
O53         O  0.30278368  0.45844076  0.19033850    -0.83300
C54         C  0.29347643  0.35508439  0.24741103     0.97500
C55         C  0.28033292  0.39583202  0.34646363     1.04900
O56         O  0.31789394  0.42539040  0.27018466    -1.12200
O57         O  0.28016067  0.48638080  0.26727903    -0.74700
O58         O  0.22097895  0.45494646  0.25248509    -0.78200
O59         O  0.33763241  0.36227182  0.26309842    -0.78900
C60         C  0.23616173  0.47999865  0.26079151     0.96400
O61         O  0.24838955  0.42332083  0.18270558    -0.76800
O62         O  0.37589044  0.47051170  0.32603239    -0.82000
C63         C  0.42751232  0.42699500  0.25402084     0.99000
C64         C  0.39973091  0.45344780  0.35664444     1.04900
O65         O  0.41563790  0.40403425  0.26950317    -0.77600
C66         C  0.27089961  0.44146944  0.16602571     1.03200
Fe67       Fe  0.25777171  0.41678194  0.75064852     1.65800
Fe68       Fe  0.16636721  0.46416943  0.73854781     1.73200
Fe69       Fe  0.14241482  0.39726577  0.69278692     1.54400
O70         O  0.18685211  0.38986783  0.65247970    -0.81400
O71         O  0.10384023  0.44880348  0.74819549    -0.79700
O72         O  0.25953750  0.40979169  0.68558424    -0.83900
O73         O  0.24923640  0.37436825  0.75803617    -0.78700
O74         O  0.10616725  0.42676324  0.64599748    -0.80500
O75         O  0.20111580  0.45937870  0.80702473    -0.83300
C76         C  0.21655841  0.35580459  0.75024443     0.97500
C77         C  0.22882900  0.39788291  0.65200975     1.04900
O78         O  0.18857044  0.42602114  0.72753172    -1.12200
O79         O  0.22369411  0.48737429  0.72941925    -0.74700
O80         O  0.28377049  0.45642874  0.74697594    -0.78200
O81         O  0.17215757  0.36243693  0.73323258    -0.78900
C82         C  0.26793934  0.48121017  0.73667279     0.96400
O83         O  0.25605054  0.42424581  0.81581613    -0.76800
O84         O  0.13030961  0.47046880  0.67112154    -0.82000
C85         C  0.07909417  0.42614612  0.74316899     0.99000
C86         C  0.10669509  0.45345335  0.64054373     1.04900
O87         O  0.09221422  0.40326135  0.72808240    -0.77600
C88         C  0.23240820  0.44224206  0.83187129     1.03200
Fe89       Fe  0.75806422  0.91633899  0.26148055     1.65800
Fe90       Fe  0.66872197  0.96410905  0.24912647     1.73200
Fe91       Fe  0.64533158  0.90003499  0.19413709     1.54400
O92         O  0.69663255  0.89260515  0.16079952    -0.81400
O93         O  0.60821087  0.94765279  0.26082425    -0.79700
O94         O  0.76580663  0.91510934  0.19802087    -0.83900
O95         O  0.74717798  0.87325884  0.25736873    -0.78700
O96         O  0.61616212  0.93110602  0.14710469    -0.80500
O97         O  0.70602011  0.95808883  0.31764963    -0.83300
C98         C  0.71276854  0.85564961  0.24771940     0.97500
C99         C  0.73854057  0.90244700  0.16319903     1.04900
O100        O  0.68989393  0.92676741  0.23481009    -1.12200
O101        O  0.72597611  0.98593011  0.23734069    -0.74700
O102        O  0.78602917  0.95703908  0.27123037    -0.79800
O103        O  0.66894587  0.86410257  0.23437004    -0.78900
C104        C  0.77085418  0.98110698  0.25484338     0.96400
O105        O  0.74879738  0.91751197  0.32413821    -0.76800
O106        O  0.62800568  0.97292623  0.18302331    -0.82000
C107        C  0.57967777  0.92692091  0.24641725     0.99000
C108        C  0.61039880  0.95781211  0.14790085     1.04900
O109        O  0.58904978  0.90677686  0.22262874    -0.77600
C110        C  0.72988206  0.93745707  0.34105592     1.03200
Fe111      Fe  0.75081117  0.90607277  0.75953866     1.65800
Fe112      Fe  0.83381314  0.95612422  0.75703066     1.73200
Fe113      Fe  0.86981017  0.89264288  0.81201858     1.54400
O114        O  0.82908075  0.88249426  0.85434971    -0.81400
O115        O  0.89311106  0.94184797  0.73982300    -0.79700
O116        O  0.75661050  0.90328908  0.82668783    -0.83900
O117        O  0.76610044  0.86346630  0.75783839    -0.78700
O118        O  0.90019228  0.92472211  0.85653340    -0.80500
O119        O  0.79114296  0.94798541  0.69137651    -0.83300
C120        C  0.80179039  0.84708799  0.76108262     0.97500
C121        C  0.78962592  0.89206795  0.85905597     1.04900
O122        O  0.81862965  0.91831675  0.77581191    -1.12200
O123        O  0.77789903  0.97767366  0.77223311    -0.74700
O124        O  0.71981977  0.94553551  0.75939677    -0.78200
O125        O  0.84488335  0.85661419  0.77252423    -0.78900
C126        C  0.73443725  0.97078566  0.76767161     0.96400
O127        O  0.74510282  0.90948418  0.69195093    -0.76800
O128        O  0.87863681  0.96633419  0.82090990    -0.82000
C129        C  0.92406780  0.92198731  0.75222718     0.99000
C130        C  0.90151534  0.95166621  0.85520936     1.04900
O131        O  0.91856605  0.90119288  0.77636523    -0.77600
C132        C  0.76250594  0.92814021  0.67154635     1.03200
Fe133      Fe  0.25283062  0.09277264  0.24920913     1.65800
Fe134      Fe  0.17223758  0.03893932  0.24078891     1.73200
Fe135      Fe  0.13380702  0.10211925  0.18819821     1.54400
O136        O  0.15318706  0.13872902  0.22639664    -0.81400
O137        O  0.14148033  0.02826744  0.17324223    -0.79700
O138        O  0.23308651  0.13440915  0.25290635    -0.83900
O139        O  0.25387082  0.09974261  0.18389636    -0.78700
O140        O  0.08330423  0.09294500  0.22175258    -0.80500
O141        O  0.23634144  0.02023645  0.23854072    -0.83300
C142        C  0.22083973  0.10900724  0.14931242     0.97500
C143        C  0.19499230  0.14938246  0.24323375     1.04900
O144        O  0.18620712  0.07797022  0.22629838    -1.12200
O145        O  0.20150481  0.04864786  0.30894453    -0.74700
O146        O  0.25211311  0.08586364  0.31497771    -0.78200
O147        O  0.17725012  0.11312231  0.14909663    -0.78900
C148        C  0.22980666  0.06777580  0.33208368     0.96400
O149        O  0.28919301  0.05509083  0.24907588    -0.76800
O150        O  0.10425146  0.04868497  0.24437591    -0.82000
C151        C  0.11418533  0.04270088  0.14056539     0.99000
C152        C  0.07402028  0.06901466  0.23604919     1.04900
O153        O  0.10755768  0.06926906  0.14370035    -0.77600
C154        C  0.27896533  0.02900320  0.24412249     1.03200
Fe155      Fe  0.24858828  0.08885696  0.74826066     1.65800
Fe156      Fe  0.33114570  0.03633600  0.75831838     1.73200
Fe157      Fe  0.36447777  0.10045133  0.81072241     1.54400
O158        O  0.34489563  0.13574878  0.76915280    -0.81400
O159        O  0.36755705  0.02673610  0.82577438    -0.79700
O160        O  0.26533225  0.13138207  0.75041321    -0.83900
O161        O  0.24494683  0.09162265  0.81326617    -0.78700
O162        O  0.41810961  0.09018345  0.78132056    -0.80500
O163        O  0.26985806  0.01737762  0.76755902    -0.83300
C164        C  0.27559069  0.10355114  0.84686254     0.97500
C165        C  0.30265590  0.14651567  0.75618993     1.04900
O166        O  0.31537559  0.07512161  0.77221780    -1.12200
O167        O  0.29634981  0.04432534  0.68950019    -0.74700
O168        O  0.25430078  0.08539454  0.68408130    -0.78200
O169        O  0.31705498  0.11224276  0.84605732    -0.78900
C170        C  0.27272822  0.06536016  0.66668312     0.96400
O171        O  0.21436544  0.05019029  0.74103558    -0.76800
O172        O  0.39618868  0.04804429  0.74890002    -0.82000
C173        C  0.38874521  0.04218695  0.85986905     0.99000
C174        C  0.42680761  0.06806021  0.76136513     1.04900
O175        O  0.38972322  0.06907328  0.85760886    -0.77600
C176        C  0.22582175  0.02505292  0.75414011     1.03200
C177        C  0.29007395  0.07543467  0.45833223    -0.01700
C178        C  0.25150349  0.06881770  0.47543181     0.06900
C179        C  0.20537588  0.06347843  0.44530023    -0.07700
C180        C  0.19738667  0.06386490  0.39864222     0.04300
C181        C  0.23643417  0.06905126  0.38126143    -0.14900
C182        C  0.28235709  0.07542339  0.41151638    -0.08200
C183        C  0.25799437  0.06756830  0.52460020     0.05300
C184        C  0.26644900  0.09278231  0.54984395    -0.09400
C185        C  0.27133277  0.09253889  0.59605888     0.00300
C186        C  0.26706313  0.06665060  0.61770432     0.00100
C187        C  0.25912705  0.04137443  0.59236323    -0.12900
C188        C  0.25455418  0.04165960  0.54619050     0.00600
C189        C  0.28377897  0.11886442  0.62083899     0.39900
C190        C  0.24756926  0.01504599  0.52181286     0.36500
C191        C  0.33795694  0.08168435  0.48824359     0.36200
C192        C  0.14819013  0.06033525  0.36954401     0.37000
N193        N  0.29442463  0.13996834  0.64054282    -0.43800
N194        N  0.24217381  0.99373129  0.50223847    -0.44200
N195        N  0.10854731  0.05776518  0.34662224    -0.41600
N196        N  0.37623766  0.08678497  0.51234685    -0.43000
H197        H  0.31244877  0.07985563  0.39864070     0.13100
H198        H  0.17535109  0.05925584  0.45839242     0.09600
H199        H  0.26952945  0.11269352  0.53337503     0.10700
H200        H  0.25639394  0.02134611  0.60865112     0.16500
C201        C  0.28536149  0.10220951  0.06068601    -0.01700
C202        C  0.25173616  0.11475655  0.02285560     0.06900
C203        C  0.20996146  0.12772756  0.02723280    -0.07700
C204        C  0.19975803  0.12719982  0.06828187     0.04300
C205        C  0.23265532  0.11379710  0.10654486    -0.14900
C206        C  0.27599377  0.10215438  0.10224695    -0.08200
C207        C  0.25702926  0.11256949  0.97736379     0.05300
C208        C  0.24011074  0.08799480  0.95196222    -0.09400
C209        C  0.24356654  0.08506816  0.90830042     0.00300
C210        C  0.26429914  0.10716975  0.88962784     0.00100
C211        C  0.28043397  0.13196543  0.91503758    -0.12900
C212        C  0.27676115  0.13485273  0.95858220     0.00600
C213        C  0.22827258  0.05856255  0.88473090     0.39900
C214        C  0.29426421  0.16055134  0.98367651     0.36500
C215        C  0.32861965  0.08826459  0.05713170     0.36200
C216        C  0.15409151  0.13953992  0.06866643     0.37000
N217        N  0.21604687  0.03723975  0.86612178    -0.43800
N218        N  0.30836881  0.18117553  0.00369726    -0.44200
N219        N  0.11698662  0.14917459  0.06792934    -0.41600
N220        N  0.36318742  0.07695812  0.05430655    -0.43000
H221        H  0.30163291  0.09168656  0.13076434     0.13100
H222        H  0.18417442  0.13729353  0.99779892     0.09600
H223        H  0.22468064  0.07093905  0.96658787     0.10700
H224        H  0.29672474  0.14894415  0.90107285     0.16500
C225        C  0.95431346  0.97351893  0.97684377    -0.01700
C226        C  0.99351051  0.99076952  0.97514633     0.06900
C227        C  0.00159113  0.99566825  0.93352771    -0.07700
C228        C  0.97130420  0.98353782  0.89380365     0.04300
C229        C  0.93216352  0.96629675  0.89557394    -0.14900
C230        C  0.92425374  0.96123284  0.93718015    -0.08200
C231        C  0.02617973  0.00416090  0.01635279     0.05300
C232        C  0.05792635  0.98706407  0.04937935    -0.09400
C233        C  0.08844556  0.99894809  0.08938008     0.00300
C234        C  0.08694533  0.02863836  0.09708805     0.00100
C235        C  0.05586604  0.04564977  0.06282456    -0.12900
C236        C  0.02578393  0.03372728  0.02295157     0.00600
C237        C  0.12045675  0.97999667  0.12154310     0.39900
C238        C  0.99349341  0.05215400  0.98992676     0.36500
C239        C  0.94358429  0.96867133  0.01863142     0.36200
C240        C  0.98263443  0.98770574  0.85212243     0.37000
N241        N  0.14616916  0.96473150  0.14717625    -0.43800
N242        N  0.96758467  0.06686402  0.96343764    -0.44200
N243        N  0.99178528  0.99081794  0.81872339    -0.41600
N244        N  0.93471123  0.96481867  0.05200019    -0.43000
H245        H  0.89436891  0.94775822  0.93858958     0.13100
H246        H  0.03197464  0.00873022  0.93224871     0.09600
H247        H  0.05867046  0.96429064  0.04387574     0.10700
H248        H  0.05402495  0.06845956  0.06732387     0.16500
C249        C  0.52706658  0.03149789  0.72704421    -0.01700
C250        C  0.56922594  0.04216256  0.75892541     0.06900
C251        C  0.56480331  0.06483749  0.78679490    -0.07700
C252        C  0.51888924  0.07565608  0.78538386     0.04300
C253        C  0.47601066  0.06349199  0.75569635    -0.14900
C254        C  0.48125015  0.04221097  0.72548258    -0.08200
C255        C  0.61680165  0.02728494  0.76707507     0.05300
C256        C  0.64664936  0.03350900  0.74020468    -0.09400
C257        C  0.68755677  0.01656861  0.74238923     0.00300
C258        C  0.69834375  0.99256784  0.77104359     0.00100
C259        C  0.66973857  0.98724284  0.79940810    -0.12900
C260        C  0.62975407  0.00458393  0.79811726     0.00600
C261        C  0.71590890  0.02295968  0.71267686     0.39900
C262        C  0.60127113  0.99810336  0.82773023     0.36500
C263        C  0.52982418  0.00814308  0.69765822     0.36200
C264        C  0.51720071  0.09769639  0.81727754     0.37000
N265        N  0.73888518  0.02795290  0.68901260    -0.43800
N266        N  0.57845644  0.99314667  0.85155528    -0.44200
N267        N  0.51599197  0.11537145  0.84288988    -0.41600
N268        N  0.53225745  0.98936382  0.67430944    -0.43000
H269        H  0.44922981  0.03265731  0.70218236     0.13100
H270        H  0.59717954  0.07312633  0.81134624     0.09600
H271        H  0.63690862  0.05092886  0.71628838     0.10700
H272        H  0.67792874  0.96899870  0.82180742     0.16500
C273        C  0.05785723  0.93473817  0.78086664    -0.01700
C274        C  0.06075134  0.95093106  0.74361585     0.06900
C275        C  0.01975710  0.95237042  0.70505169    -0.07700
C276        C  0.97517879  0.94060797  0.70501989     0.04300
C277        C  0.97146070  0.92598402  0.74354692    -0.14900
C278        C  0.01385552  0.92191102  0.78009814    -0.08200
C279        C  0.10356654  0.96949445  0.74647045     0.05300
C280        C  0.15018580  0.95766028  0.75441893    -0.09400
C281        C  0.19097821  0.97500244  0.75841601     0.00300
C282        C  0.18533542  0.00491550  0.75322716     0.00100
C283        C  0.13854934  0.01649633  0.74611404    -0.12900
C284        C  0.09835387  0.99932347  0.74324671     0.00600
C285        C  0.23785763  0.96140504  0.76818584     0.39900
C286        C  0.05234481  0.01306308  0.73878748     0.36500
C287        C  0.09770469  0.93382299  0.82231368     0.36200
C288        C  0.93317876  0.94547877  0.66621353     0.37000
N289        N  0.27542847  0.95041025  0.77646429    -0.43800
N290        N  0.01556581  0.02409889  0.73539072    -0.44200
N291        N  0.89954162  0.94965102  0.63522915    -0.41600
N292        N  0.12950880  0.93337385  0.85566327    -0.43000
H293        H  0.01147678  0.91135730  0.81033536     0.13100
H294        H  0.02172260  0.96450237  0.67603322     0.09600
H295        H  0.15475419  0.93478360  0.75778084     0.10700
H296        H  0.13307921  0.03933232  0.74328580     0.16500
C297        C  0.50081452  0.99361492  0.06881011    -0.01700
C298        C  0.51064189  0.99215700  0.02700969     0.06900
C299        C  0.55493753  0.98030170  0.02576984    -0.07700
C300        C  0.58843966  0.96931589  0.06489209     0.04300
C301        C  0.57886398  0.97134078  0.10660063    -0.14900
C302        C  0.53521442  0.98369025  0.10817354    -0.08200
C303        C  0.47613188  0.00380006  0.98466743     0.05300
C304        C  0.46133132  0.03224063  0.98406279    -0.09400
C305        C  0.43079045  0.04467417  0.94478303     0.00300
C306        C  0.41540028  0.02874095  0.90396570     0.00100
C307        C  0.42909726  0.99994137  0.90503278    -0.12900
C308        C  0.45897477  0.98742176  0.94482577     0.00600
C309        C  0.41596836  0.07381022  0.94807063     0.39900
C310        C  0.47130026  0.95768225  0.94397631     0.36500
C311        C  0.45478665  0.00384436  0.07192633     0.36200
C312        C  0.63229524  0.95607904  0.06140454     0.37000
N313        N  0.40424836  0.09713159  0.95096219    -0.43800
N314        N  0.48132446  0.93385911  0.94338665    -0.44200
N315        N  0.66724644  0.94536132  0.05835628    -0.41600
N316        N  0.41786523  0.01192091  0.07447333    -0.43000
H317        H  0.52704080  0.98441126  0.13997251     0.13100
H318        H  0.56323326  0.97945311  0.99406358     0.09600
H319        H  0.47428312  0.04500090  0.01448266     0.10700
H320        H  0.41747671  0.98726293  0.87445530     0.16500
C321        C  0.82243268  0.88649032  0.98621777    -0.01700
C322        C  0.77845278  0.89373525  0.99381669     0.06900
C323        C  0.73733412  0.89959114  0.95719417    -0.07700
C324        C  0.73933024  0.89837819  0.91292700     0.04300
C325        C  0.78359709  0.89120669  0.90479316    -0.14900
C326        C  0.82471679  0.88520579  0.94202483    -0.08200
C327        C  0.77347809  0.89418005  0.03956365     0.05300
C328        C  0.79315806  0.91683331  0.06866785    -0.09400
C329        C  0.78429377  0.91940792  0.11032061     0.00300
C330        C  0.75502292  0.89898741  0.12297205     0.00100
C331        C  0.73732908  0.87567807  0.09436486    -0.12900
C332        C  0.74639702  0.87313959  0.05300951     0.00600
C333        C  0.80324274  0.94402018  0.13787254     0.39900
C334        C  0.72715487  0.84895162  0.02451283     0.36500
C335        C  0.86536511  0.87994196  0.02321295     0.36200
C336        C  0.69516068  0.90446162  0.87702822     0.37000
N337        N  0.81855959  0.96369637  0.16000345    -0.43800
N338        N  0.71195807  0.82962571  0.00148632    -0.44200
N339        N  0.65970257  0.90938363  0.84837941    -0.41600
N340        N  0.89970385  0.87467888  0.05291644    -0.43000
H341        H  0.85917002  0.87995167  0.93687242     0.13100
H342        H  0.70340799  0.90502328  0.96335639     0.09600
H343        H  0.81403284  0.93300806  0.05809277     0.10700
H344        H  0.71550584  0.85961617  0.10393323     0.16500
C345        C  0.73558094  0.90610530  0.45407911    -0.01700
C346        C  0.73795349  0.93053639  0.48109540     0.06900
C347        C  0.73901069  0.95751023  0.46209657    -0.07700
C348        C  0.73659349  0.96045747  0.41667562     0.04300
C349        C  0.73439244  0.93595825  0.38968103    -0.14900
C350        C  0.73435996  0.90899231  0.40904574    -0.08200
C351        C  0.74096240  0.92839023  0.52953742     0.05300
C352        C  0.77878205  0.91237017  0.55856077    -0.09400
C353        C  0.78418008  0.91069458  0.60465692     0.00300
C354        C  0.75226673  0.92590313  0.62258416     0.00100
C355        C  0.71400301  0.94158279  0.59385180    -0.12900
C356        C  0.70774583  0.94265797  0.54739492     0.00600
C357        C  0.82328930  0.89368901  0.63321082     0.39900
C358        C  0.66688601  0.95830835  0.51872738     0.36500
C359        C  0.73264844  0.87786653  0.47124682     0.36200
C360        C  0.73742289  0.98880437  0.39911390     0.37000
N361        N  0.85440441  0.87996777  0.65613155    -0.43800
N362        N  0.63416853  0.97082226  0.49564028    -0.44200
N363        N  0.73788201  0.01155057  0.38508571    -0.41600
N364        N  0.73033822  0.85523678  0.48500213    -0.43000
H365        H  0.73188511  0.89002778  0.38852442     0.13100
H366        H  0.74185197  0.97636075  0.48292051     0.09600
H367        H  0.80465086  0.90150353  0.54527403     0.10700
H368        H  0.68955416  0.95331844  0.60782354     0.16500
C369        C  0.89040821  0.02034097  0.29329381    -0.01700
C370        C  0.88794661  0.03772631  0.25583421     0.06900
C371        C  0.84409955  0.03938718  0.22041350    -0.07700
C372        C  0.80391106  0.02270019  0.22068482     0.04300
C373        C  0.80773547  0.00349402  0.25657798    -0.14900
C374        C  0.85067718  0.00341597  0.29335467    -0.08200
C375        C  0.93329768  0.04840092  0.24854205     0.05300
C376        C  0.95620042  0.03036181  0.22557107    -0.09400
C377        C  0.00136417  0.03713655  0.22104152     0.00300
C378        C  0.02490281  0.06277570  0.23950145     0.00100
C379        C  0.00115453  0.08152391  0.26122098    -0.12900
C380        C  0.95577315  0.07430513  0.26632833     0.00600
C381        C  0.02229401  0.01725511  0.19663193     0.39900
C382        C  0.93327160  0.09337161  0.29043330     0.36500
C383        C  0.93468304  0.01802750  0.33055050     0.36200
C384        C  0.76097071  0.02385994  0.18192121     0.37000
N385        N  0.03869339  0.00107270  0.17720673    -0.43800
N386        N  0.91514030  0.10862617  0.30978234    -0.44200
N387        N  0.72655088  0.02474703  0.15082365    -0.41600
N388        N  0.97025874  0.01627570  0.36030162    -0.43000
H389        H  0.85400292  0.98913732  0.32150972     0.13100
H390        H  0.84228827  0.05241059  0.19119446     0.09600
H391        H  0.93900997  0.01043224  0.21188849     0.10700
H392        H  0.01861821  0.10126330  0.27532875     0.16500
C393        C  0.44461797  0.93648951  0.21594257    -0.01700
C394        C  0.44091606  0.95304251  0.25264453     0.06900
C395        C  0.48115115  0.95493061  0.29152002    -0.07700
C396        C  0.52601137  0.94300733  0.29252711     0.04300
C397        C  0.53130735  0.92907770  0.25384198    -0.14900
C398        C  0.48954987  0.92452713  0.21683162    -0.08200
C399        C  0.39820242  0.97181532  0.24877559     0.05300
C400        C  0.36012550  0.96251795  0.26430539    -0.09400
C401        C  0.32064463  0.98053312  0.26273119     0.00300
C402        C  0.31869466  0.00842089  0.24497316     0.00100
C403        C  0.35708674  0.01752524  0.22950461    -0.12900
C404        C  0.39648815  0.99961104  0.23135116     0.00600
C405        C  0.28435220  0.97046402  0.28215482     0.39900
C406        C  0.43541117  0.01042284  0.21601525     0.36500
C407        C  0.40354786  0.93321866  0.17587790     0.36200
C408        C  0.56687050  0.94682381  0.33272035     0.37000
N409        N  0.25545905  0.96247974  0.29804919    -0.43800
N410        N  0.46669219  0.01910857  0.20389930    -0.44200
N411        N  0.59969809  0.94987518  0.36482423    -0.41600
N412        N  0.37048067  0.93058151  0.14387298    -0.43000
H413        H  0.49286036  0.91398972  0.18684158     0.13100
H414        H  0.47828188  0.96726036  0.32012931     0.09600
H415        H  0.36174458  0.94134909  0.27848335     0.10700
H416        H  0.35649307  0.03884218  0.21606157     0.16500
C417        C  0.20979712  0.27514734  0.75809806    -0.01700
C418        C  0.25745756  0.26662827  0.76009293     0.06900
C419        C  0.29208750  0.28771228  0.76213583    -0.07700
C420        C  0.28047163  0.31660679  0.76203033     0.04300
C421        C  0.23210350  0.32535032  0.75809009    -0.14900
C422        C  0.19748921  0.30417759  0.75662762    -0.08200
C423        C  0.27164749  0.23609143  0.75785508     0.05300
C424        C  0.24348674  0.21887702  0.72268352    -0.09400
C425        C  0.25425110  0.18997220  0.72001007     0.00300
C426        C  0.29553137  0.17782206  0.75178326     0.00100
C427        C  0.32542671  0.19539857  0.78540004    -0.12900
C428        C  0.31353066  0.22410115  0.78914194     0.00600
C429        C  0.22144530  0.17318895  0.68486114     0.39900
C430        C  0.34345506  0.24024913  0.82694559     0.36500
C431        C  0.17271842  0.25459691  0.75765936     0.36200
C432        C  0.31924597  0.33641638  0.76417440     0.37000
N433        N  0.19477063  0.15981885  0.65685367    -0.43800
N434        N  0.36752955  0.25319719  0.85717377    -0.44200
N435        N  0.35052386  0.35213192  0.76608697    -0.41600
N436        N  0.14281012  0.23820475  0.75713424    -0.43000
H437        H  0.16047934  0.31025851  0.75376540     0.13100
H438        H  0.32845297  0.28157198  0.76270936     0.09600
H439        H  0.21225637  0.22794514  0.69752745     0.10700
H440        H  0.35643705  0.18623807  0.81073046     0.16500
C441        C  0.21664804  0.28998260  0.24441842    -0.01700
C442        C  0.24821097  0.26743237  0.24309624     0.06900
C443        C  0.29448639  0.27360947  0.23947705    -0.07700
C444        C  0.30987553  0.30193915  0.23843338     0.04300
C445        C  0.27863347  0.32459907  0.24126254    -0.14900
C446        C  0.23183655  0.31799625  0.24341097    -0.08200
C447        C  0.23286834  0.23744206  0.24541630     0.05300
C448        C  0.19282803  0.22700476  0.21106323    -0.09400
C449        C  0.17645168  0.19911101  0.21227648     0.00300
C450        C  0.20146253  0.18064920  0.24767821     0.00100
C451        C  0.24045119  0.19150593  0.28292532    -0.12900
C452        C  0.25564402  0.21976258  0.28244105     0.00600
C453        C  0.13530966  0.18974640  0.17559188     0.39900
C454        C  0.29388672  0.23036506  0.32068384     0.36500
C455        C  0.16901403  0.28493317  0.24873397     0.36200
C456        C  0.35711616  0.30709149  0.23344949     0.37000
N457        N  0.10192253  0.18245798  0.14642080    -0.43800
N458        N  0.32416163  0.23901617  0.35151379    -0.44200
N459        N  0.39484054  0.31123751  0.22907866    -0.41600
N460        N  0.13084902  0.28078124  0.25206043    -0.43000
H461        H  0.20714884  0.33482738  0.24618065     0.13100
H462        H  0.31859640  0.25625413  0.23755181     0.09600
H463        H  0.17446990  0.24072354  0.18297786     0.10700
H464        H  0.25981365  0.17765180  0.31043649     0.16500
C465        C  0.27498426  0.46793532  0.05232404    -0.01700
C466        C  0.25096775  0.44613400  0.02289960     0.06900
C467        C  0.23132009  0.42321686  0.04012289    -0.07700
C468        C  0.23591837  0.42140594  0.08617120     0.04300
C469        C  0.26087521  0.44301380  0.11616040    -0.14900
C470        C  0.27941141  0.46631977  0.09826215    -0.08200
C471        C  0.24752510  0.44605262  0.97435601     0.05300
C472        C  0.26960431  0.42379870  0.95770942    -0.09400
C473        C  0.26587550  0.42204540  0.91181848     0.00300
C474        C  0.24018831  0.44335642  0.88152547     0.00100
C475        C  0.21845610  0.46576305  0.89877485    -0.12900
C476        C  0.22129733  0.46701529  0.94441366     0.00600
C477        C  0.28700891  0.39742451  0.89707780     0.39900
C478        C  0.19511498  0.48927435  0.95926874     0.36500
C479        C  0.29701919  0.49165737  0.03661509     0.36200
C480        C  0.21592002  0.39663129  0.10129083     0.37000
N481        N  0.30373008  0.37753486  0.88547299    -0.43800
N482        N  0.17409520  0.50707768  0.97117618    -0.44200
N483        N  0.19979896  0.37672456  0.11316534    -0.41600
N484        N  0.31452412  0.51077013  0.02414117    -0.43000
H485        H  0.29841045  0.48324572  0.12031577     0.13100
H486        H  0.21278082  0.40643676  0.01742506     0.09600
H487        H  0.28925596  0.40742637  0.98070409     0.10700
H488        H  0.19804990  0.48218397  0.87642188     0.16500
C489        C  0.23269268  0.41298524  0.44372910    -0.01700
C490        C  0.25727664  0.39291582  0.47644785     0.06900
C491        C  0.28559054  0.37178813  0.46477296    -0.07700
C492        C  0.29176133  0.37125956  0.42184246     0.04300
C493        C  0.26920360  0.39231367  0.38964757    -0.14900
C494        C  0.23873423  0.41250083  0.40081422    -0.08200
C495        C  0.25366531  0.39344494  0.52295466     0.05300
C496        C  0.23054110  0.37086397  0.53727831    -0.09400
C497        C  0.22426657  0.37113359  0.58014484     0.00300
C498        C  0.24104976  0.39449128  0.60939715     0.00100
C499        C  0.26652388  0.41637339  0.59584177    -0.12900
C500        C  0.27312550  0.41594272  0.55306687     0.00600
C501        C  0.20163538  0.34685153  0.59367736     0.39900
C502        C  0.30021072  0.43864445  0.54084376     0.36500
C503        C  0.20136886  0.43441933  0.45345590     0.36200
C504        C  0.32167279  0.34898128  0.41214134     0.37000
N505        N  0.18382637  0.32729660  0.60464371    -0.43800
N506        N  0.32198307  0.45674887  0.53094566    -0.44200
N507        N  0.34590656  0.33115475  0.40473981    -0.41600
N508        N  0.17635541  0.45169540  0.46111043    -0.43000
H509        H  0.22099458  0.42873116  0.37656530     0.13100
H510        H  0.30373857  0.35599402  0.48966782     0.09600
H511        H  0.21679585  0.35314892  0.51461872     0.10700
H512        H  0.27999827  0.43429880  0.61812366     0.16500
C513        C  0.80666677  0.72473172  0.28010940    -0.01700
C514        C  0.76352180  0.73518194  0.24887159     0.06900
C515        C  0.73536630  0.71661102  0.21588413    -0.07700
C516        C  0.74832226  0.68785978  0.21479358     0.04300
C517        C  0.79073044  0.67707166  0.24712559    -0.14900
C518        C  0.82001130  0.69611280  0.27876382    -0.08200
C519        C  0.74889743  0.76574445  0.24876549     0.05300
C520        C  0.78145717  0.78645133  0.24389375    -0.09400
C521        C  0.77086893  0.81542693  0.24466172     0.00300
C522        C  0.72570040  0.82466645  0.24942701     0.00100
C523        C  0.69243702  0.80379627  0.25329974    -0.12900
C524        C  0.70384930  0.77458439  0.25342943     0.00600
C525        C  0.80727228  0.83486443  0.23918114     0.39900
C526        C  0.66939876  0.75412039  0.25967097     0.36500
C527        C  0.83667778  0.74264304  0.31541030     0.36200
C528        C  0.71700852  0.66996254  0.18028786     0.37000
N529        N  0.83680781  0.85021909  0.23505030    -0.43800
N530        N  0.64186719  0.73767206  0.26474932    -0.44200
N531        N  0.69188232  0.65550963  0.15285565    -0.41600
N532        N  0.86062590  0.75708098  0.34361369    -0.43000
H533        H  0.85217717  0.68834439  0.30428814     0.13100
H534        H  0.70293755  0.72460464  0.19094606     0.09600
H535        H  0.81568141  0.77986079  0.23939096     0.10700
H536        H  0.65774221  0.81027210  0.25675559     0.16500
C537        C  0.97562944  0.48365757  0.42788351    -0.01700
C538        C  0.98947440  0.49765390  0.46996700     0.06900
C539        C  0.97309631  0.52529815  0.47347471    -0.07700
C540        C  0.94317234  0.53932783  0.43581897     0.04300
C541        C  0.92779019  0.52514310  0.39359346    -0.14900
C542        C  0.94415004  0.49726899  0.39022968    -0.08200
C543        C  0.02103283  0.48431485  0.51138808     0.05300
C544        C  0.06593344  0.49697523  0.53313496    -0.09400
C545        C  0.09447906  0.48741299  0.57539992     0.00300
C546        C  0.07796586  0.46471019  0.59635250     0.00100
C547        C  0.03338110  0.45168894  0.57403533    -0.12900
C548        C  0.00470051  0.46143488  0.53195624     0.00600
C549        C  0.14088329  0.50079202  0.59592736     0.39900
C550        C  0.95784966  0.44851937  0.51146375     0.36500
C551        C  0.99510718  0.45606480  0.42219796     0.36200
C552        C  0.92960036  0.56830924  0.44197883     0.37000
N553        N  0.17809076  0.51146540  0.61246987    -0.43800
N554        N  0.92032676  0.43821739  0.49486759    -0.44200
N555        N  0.91975026  0.59164352  0.44744276    -0.41600
N556        N  0.01102768  0.43405667  0.41755562    -0.43000
H557        H  0.93388985  0.48652271  0.35778067     0.13100
H558        H  0.98415881  0.53605983  0.50594759     0.09600
H559        H  0.07826657  0.51469725  0.51724725     0.10700
H560        H  0.02037823  0.43426269  0.59001006     0.16500
C561        C  0.52412178  0.45957824  0.21166805    -0.01700
C562        C  0.56689874  0.45156900  0.24568033     0.06900
C563        C  0.56396542  0.43114306  0.27758374    -0.07700
C564        C  0.51891255  0.42009471  0.27780457     0.04300
C565        C  0.47551111  0.42988184  0.24595219    -0.14900
C566        C  0.47911928  0.44875058  0.21203474    -0.08200
C567        C  0.61351922  0.46691509  0.25171560     0.05300
C568        C  0.62749315  0.48778290  0.28551263    -0.09400
C569        C  0.66793000  0.50512321  0.28944012     0.00300
C570        C  0.69549784  0.50168066  0.25924079     0.00100
C571        C  0.68319717  0.47967268  0.22709572    -0.12900
C572        C  0.64238627  0.46243792  0.22301935     0.00600
C573        C  0.68052664  0.52630574  0.32484994     0.39900
C574        C  0.63007375  0.44067131  0.18865536     0.36500
C575        C  0.52501461  0.48057418  0.17810624     0.36200
C576        C  0.51815558  0.40084702  0.31368599     0.37000
N577        N  0.69074910  0.54315665  0.35337392    -0.43800
N578        N  0.62004203  0.42315066  0.16119303    -0.44200
N579        N  0.51770715  0.38539889  0.34247998    -0.41600
N580        N  0.52561036  0.49740306  0.15117738    -0.43000
H581        H  0.44627718  0.45656194  0.18743960     0.13100
H582        H  0.59675036  0.42488512  0.30376871     0.09600
H583        H  0.60580430  0.49110829  0.30805739     0.10700
H584        H  0.70404729  0.47683355  0.20373417     0.16500
C585        C  0.02749473  0.54337593  0.21181317    -0.01700
C586        C  0.06941151  0.55107935  0.24702917     0.06900
C587        C  0.06498065  0.57062005  0.27970427    -0.07700
C588        C  0.01924040  0.58052751  0.28005439     0.04300
C589        C  0.97665559  0.57030193  0.24772001    -0.14900
C590        C  0.98161434  0.55268262  0.21272164    -0.08200
C591        C  0.11625193  0.53559421  0.25428969     0.05300
C592        C  0.14488586  0.54047350  0.22580585    -0.09400
C593        C  0.18651756  0.52387773  0.22946974     0.00300
C594        C  0.19984489  0.50198128  0.26203811     0.00100
C595        C  0.17198143  0.49776223  0.29129105    -0.12900
C596        C  0.13071777  0.51435717  0.28784991     0.00600
C597        C  0.21274375  0.52821483  0.19729020     0.39900
C598        C  0.10212542  0.50804495  0.31744386     0.36500
C599        C  0.03044594  0.52449681  0.17603988     0.36200
C600        C  0.01706310  0.59902109  0.31650554     0.37000
N601        N  0.23362138  0.53162835  0.17136027    -0.43800
N602        N  0.07920116  0.50295261  0.34111930    -0.44200
N603        N  0.01547780  0.61392192  0.34570092    -0.41600
N604        N  0.03290766  0.50956419  0.14716986    -0.43000
H605        H  0.94936423  0.54491176  0.18736531     0.13100
H606        H  0.09717572  0.57682082  0.30660698     0.09600
H607        H  0.13375724  0.55658913  0.19973755     0.10700
H608        H  0.18145829  0.48063154  0.31580497     0.16500
C609        C  0.75984426  0.71024407  0.79043848    -0.01700
C610        C  0.74632791  0.72745157  0.75122778     0.06900
C611        C  0.71711057  0.71553681  0.71062950    -0.07700
C612        C  0.70086962  0.68742570  0.70852618     0.04300
C613        C  0.71488589  0.67001057  0.74749185    -0.14900
C614        C  0.74471272  0.68170031  0.78812906    -0.08200
C615        C  0.76135139  0.75795903  0.75144010     0.05300
C616        C  0.81080428  0.76541100  0.76686298    -0.09400
C617        C  0.82570390  0.79401784  0.76846169     0.00300
C618        C  0.79073519  0.81595568  0.75348010     0.00100
C619        C  0.74152658  0.80803804  0.73584163    -0.12900
C620        C  0.72668524  0.77973632  0.73537468     0.00600
C621        C  0.87679278  0.80005423  0.78733054     0.39900
C622        C  0.67518139  0.77392594  0.72035848     0.36500
C623        C  0.78840734  0.72149451  0.83356261     0.36200
C624        C  0.67223549  0.67657560  0.66505103     0.37000
N625        N  0.91782126  0.80472788  0.80261363    -0.43800
N626        N  0.63393252  0.76931160  0.70829218    -0.44200
N627        N  0.64928622  0.66784022  0.63028320    -0.41600
N628        N  0.81129545  0.73054845  0.86811907    -0.43000
H629        H  0.75625630  0.66849958  0.81810722     0.13100
H630        H  0.70729259  0.72824852  0.68008192     0.09600
H631        H  0.83790374  0.74882486  0.77836498     0.10700
H632        H  0.71375406  0.82421307  0.72389277     0.16500
C633        C  0.48748913  0.50086314  0.44077999    -0.01700
C634        C  0.49688420  0.48478836  0.48072132     0.06900
C635        C  0.47306206  0.45900523  0.48033810    -0.07700
C636        C  0.43992430  0.44891432  0.44073212     0.04300
C637        C  0.43061187  0.46474424  0.40020831    -0.14900
C638        C  0.45454723  0.49073375  0.40083314    -0.08200
C639        C  0.52538593  0.49632797  0.52472235     0.05300
C640        C  0.50268299  0.51631710  0.54470903    -0.09400
C641        C  0.52607797  0.52695772  0.58755585     0.00300
C642        C  0.57405326  0.51809597  0.61085027     0.00100
C643        C  0.59625321  0.49725522  0.59122873    -0.12900
C644        C  0.57206447  0.48615189  0.54844746     0.00600
C645        C  0.49875867  0.54599466  0.60708521     0.39900
C646        C  0.59579863  0.46475323  0.52923367     0.36500
C647        C  0.51125354  0.52771318  0.44011001     0.36200
C648        C  0.41482910  0.42285193  0.44354826     0.37000
N649        N  0.47559247  0.56095720  0.62182745    -0.43800
N650        N  0.61479942  0.44754317  0.51388654    -0.44200
N651        N  0.39521029  0.40193516  0.44668987    -0.41600
N652        N  0.53019507  0.54926145  0.43942767    -0.43000
H653        H  0.44820795  0.50289892  0.36994602     0.13100
H654        H  0.47928224  0.44718130  0.51156950     0.09600
H655        H  0.46590776  0.52321392  0.52692919     0.10700
H656        H  0.63297153  0.49020078  0.60873073     0.16500
C657        C  0.69460046  0.59433725  0.51965660    -0.01700
C658        C  0.73749247  0.60735735  0.51741116     0.06900
C659        C  0.77089926  0.61793056  0.55694285    -0.07700
C660        C  0.76279801  0.61489138  0.59884067     0.04300
C661        C  0.72059906  0.60087379  0.60148093    -0.14900
C662        C  0.68641912  0.59125358  0.56140491    -0.08200
C663        C  0.75036990  0.60730309  0.47491964     0.05300
C664        C  0.72366648  0.62400414  0.43823174    -0.09400
C665        C  0.73347044  0.62271662  0.39679296     0.00300
C666        C  0.77089525  0.60479939  0.39227038     0.00100
C667        C  0.79738544  0.58820365  0.42896697    -0.12900
C668        C  0.78725756  0.58915484  0.46996728     0.00600
C669        C  0.70540805  0.64014871  0.35974503     0.39900
C670        C  0.81346140  0.57022660  0.50573950     0.36500
C671        C  0.65979402  0.58275533  0.47977341     0.36200
C672        C  0.79779429  0.62684150  0.63823579     0.37000
N673        N  0.68300889  0.65403653  0.32989008    -0.43800
N674        N  0.83416299  0.55495136  0.53433973    -0.44200
N675        N  0.82571244  0.63646276  0.66986492    -0.41600
N676        N  0.63232342  0.57356832  0.44749092    -0.43000
H677        H  0.65376153  0.58050341  0.56276327     0.13100
H678        H  0.80385483  0.62807986  0.55507554     0.09600
H679        H  0.69490285  0.63774127  0.44190039     0.10700
H680        H  0.82503039  0.57369823  0.42504056     0.16500
C681        C  0.77074954  0.58603554  0.95251258    -0.01700
C682        C  0.76162221  0.56273728  0.97714238     0.06900
C683        C  0.74899802  0.53640008  0.95579498    -0.07700
C684        C  0.74346636  0.53324362  0.90985257     0.04300
C685        C  0.75007382  0.55694010  0.88443933    -0.14900
C686        C  0.76505521  0.58296931  0.90641033    -0.08200
C687        C  0.76472229  0.56518604  0.02525013     0.05300
C688        C  0.72186184  0.56378616  0.03745623    -0.09400
C689        C  0.72359303  0.56411208  0.08296789     0.00300
C690        C  0.76892900  0.56530118  0.11671253     0.00100
C691        C  0.81160871  0.56719651  0.10429960    -0.12900
C692        C  0.80984896  0.56729070  0.05900279     0.00600
C693        C  0.67888474  0.56178507  0.09420050     0.39900
C694        C  0.85483235  0.56873235  0.04802974     0.36500
C695        C  0.78414298  0.61346218  0.97350330     0.36200
C696        C  0.73152169  0.50541698  0.88975017     0.37000
N697        N  0.64308019  0.55992372  0.10327579    -0.43800
N698        N  0.89088666  0.57004260  0.03928738    -0.44200
N699        N  0.72207770  0.48313848  0.87359984    -0.41600
N700        N  0.79504448  0.63538223  0.99051105    -0.43000
H701        H  0.77010335  0.60127363  0.88715897     0.13100
H702        H  0.74314248  0.51831695  0.97510838     0.09600
H703        H  0.68713218  0.56204512  0.01135184     0.10700
H704        H  0.84659661  0.56833762  0.13022261     0.16500
C705        C  0.86743136  0.46086027  0.78224690    -0.01700
C706        C  0.89008468  0.46098318  0.74791764     0.06900
C707        C  0.86870389  0.47669916  0.70844052    -0.07700
C708        C  0.82749369  0.49364612  0.70409420     0.04300
C709        C  0.80620239  0.49470032  0.73932567    -0.14900
C710        C  0.82551993  0.47741258  0.77751959    -0.08200
C711        C  0.93845317  0.44742732  0.75379220     0.05300
C712        C  0.94272666  0.42545767  0.72450239    -0.09400
C713        C  0.98853476  0.41601524  0.72319395     0.00300
C714        C  0.03136969  0.42838820  0.75218950     0.00100
C715        C  0.02672643  0.44891244  0.78369626    -0.12900
C716        C  0.98111689  0.45887056  0.78405809     0.00600
C717        C  0.99013911  0.39600252  0.68839347     0.39900
C718        C  0.97930444  0.48306287  0.81223449     0.36500
C719        C  0.88767154  0.44478877  0.82325831     0.36200
C720        C  0.80818557  0.51026525  0.66349584     0.37000
N721        N  0.99130801  0.38013819  0.66022422    -0.43800
N722        N  0.97794735  0.50266520  0.83440556    -0.44200
N723        N  0.79260623  0.52362019  0.63102053    -0.41600
N724        N  0.90414587  0.43202308  0.85621487    -0.43000
H725        H  0.80963017  0.47816273  0.80490260     0.13100
H726        H  0.88569439  0.47681902  0.68180477     0.09600
H727        H  0.91012366  0.41688434  0.70065082     0.10700
H728        H  0.05902614  0.45896897  0.80574930     0.16500
C729        C  0.47645993  0.53994108  0.78972194    -0.01700
C730        C  0.43555474  0.55098029  0.75648274     0.06900
C731        C  0.44189523  0.57299406  0.72852631    -0.07700
C732        C  0.48869464  0.58195158  0.73015255     0.04300
C733        C  0.52995805  0.56787523  0.75898106    -0.14900
C734        C  0.52316199  0.54809470  0.79031918    -0.08200
C735        C  0.38830792  0.53586476  0.74495214     0.05300
C736        C  0.35001188  0.54624931  0.75956585    -0.09400
C737        C  0.30787042  0.52987244  0.75398076     0.00300
C738        C  0.30410371  0.50272811  0.73356292     0.00100
C739        C  0.34098970  0.49358473  0.71600506    -0.12900
C740        C  0.38275948  0.50973228  0.72162825     0.00600
C741        C  0.27091007  0.54038924  0.77235149     0.39900
C742        C  0.42062191  0.49832443  0.70509714     0.36500
C743        C  0.47129189  0.51882713  0.82159217     0.36200
C744        C  0.49301609  0.60370154  0.69892784     0.37000
N745        N  0.24121448  0.54882128  0.78702987    -0.43800
N746        N  0.45098496  0.48908051  0.69203498    -0.44200
N747        N  0.49628284  0.62109373  0.67374112    -0.41600
N748        N  0.46704241  0.50206840  0.84731478    -0.43000
H749        H  0.55441455  0.53766809  0.81348693     0.13100
H750        H  0.41045303  0.58181250  0.70332282     0.09600
H751        H  0.35400720  0.56646975  0.77714437     0.10700
H752        H  0.33825640  0.47293704  0.69972594     0.16500
loop_ 
_geom_bond_atom_site_label_1 
_geom_bond_atom_site_label_2 
_geom_bond_distance 
_geom_bond_site_symmetry_2 
_ccdc_geom_bond_type 
Fe1          O17   2.058       .  S
Fe1           O7   2.086       .  S
Fe1          O14   2.090       .  S
Fe1           O6   2.062       .  S
Fe1          O12   1.957       .  S
Fe2           O5   2.062       .  S
Fe2           O9   2.085       .  S
Fe2          O13   2.041       .  S
Fe2          O18   2.085       .  S
Fe2          O12   1.963       .  S
Fe3          O21   2.063       .  S
Fe3           O8   2.063       .  S
Fe3          O15   2.046       .  S
Fe3           O4   2.067       .  S
Fe3          O12   1.959       .  S
O4           C11   1.267       .  A
O5           C19   1.271       .  A
O6           C11   1.265       .  A
O7           C10   1.278       .  A
O8           C20   1.269       .  A
O9           C22   1.267       .  A
C10          O15   1.270       .  A
C10         C661   1.481       .  S
C11         C613   1.487       .  S
O13          C16   1.272       .  A
O14          C16   1.280       .  A
C16         C685   1.474       .  S
O17          C22   1.263       .  A
O18          C20   1.273       .  A
C19          O21   1.269       .  A
C19         C642   1.476       .  S
C20         C733   1.488       .  S
C22         C709   1.486       .  S
Fe23         O39   2.049       .  S
Fe23         O29   2.069       .  S
Fe23         O36   2.081       .  S
Fe23         O28   2.045       .  S
Fe23         O34   1.972       .  S
Fe24         O27   2.057       .  S
Fe24         O31   2.085       .  S
Fe24         O35   2.046       .  S
Fe24         O40   2.073       .  S
Fe24         O34   1.974       .  S
Fe25         O43   2.054       .  S
Fe25         O30   2.075       .  S
Fe25         O37   2.059       .  S
Fe25         O26   2.074       .  S
Fe25         O34   1.970       .  S
O26          C33   1.268       .  A
O27          C41   1.270       .  A
O28          C33   1.261       .  A
O29          C32   1.274       .  A
O30          C42   1.272       .  A
O31          C44   1.266       .  A
C32          O37   1.273       .  A
C32         C666   1.469       .  S
C33         C517   1.494       .  S
O35          C38   1.272       .  A
O36          C38   1.278       .  A
C38         C690   1.469       .  S
O39          C44   1.260       .  A
O40          C42   1.270       .  A
C41          O43   1.267       .  A
C41         C541   1.474       .  S
C42         C589   1.489       .  S
C44         C570   1.486       .  S
Fe45         O61   2.069       .  S
Fe45         O51   2.036       .  S
Fe45         O58   2.041       .  S
Fe45         O50   2.061       .  S
Fe45         O56   1.959       .  S
Fe46         O49   2.056       .  S
Fe46         O53   2.071       .  S
Fe46         O57   2.078       .  S
Fe46         O62   2.071       .  S
Fe46         O56   1.969       .  S
Fe47         O65   2.085       .  S
Fe47         O52   2.046       .  S
Fe47         O59   2.080       .  S
Fe47         O48   2.078       .  S
Fe47         O56   1.977       .  S
O48          C55   1.276       .  A
O49          C63   1.267       .  A
O50          C55   1.275       .  A
O51          C54   1.260       .  A
O52          C64   1.267       .  A
O53          C66   1.279       .  A
C54          O59   1.267       .  A
C54         C445   1.493       .  S
C55         C493   1.483       .  S
O57          C60   1.263       .  A
O58          C60   1.257       .  A
C60         C594   1.480       .  S
O61          C66   1.278       .  A
O62          C64   1.274       .  A
C63          O65   1.273       .  A
C63         C565   1.491       .  S
C64         C637   1.475       .  S
C66         C469   1.490       .  S
Fe67         O83   2.071       .  S
Fe67         O73   2.032       .  S
Fe67         O80   2.029       .  S
Fe67         O72   2.065       .  S
Fe67         O78   1.956       .  S
Fe68         O71   2.056       .  S
Fe68         O75   2.071       .  S
Fe68         O79   2.079       .  S
Fe68         O84   2.058       .  S
Fe68         O78   1.967       .  S
Fe69         O87   2.089       .  S
Fe69         O74   2.050       .  S
Fe69         O81   2.083       .  S
Fe69         O70   2.079       .  S
Fe69         O78   1.976       .  S
O70          C77   1.277       .  A
O71          C85   1.268       .  A
O72          C77   1.275       .  A
O73          C76   1.257       .  A
O74          C86   1.267       .  A
O75          C88   1.279       .  A
C76          O81   1.268       .  A
C76         C421   1.497       .  S
C77         C498   1.480       .  S
O79          C82   1.262       .  A
O80          C82   1.256       .  A
C82         C738   1.482       .  S
O83          C88   1.279       .  A
O84          C86   1.271       .  A
C85          O87   1.275       .  A
C85         C714   1.494       .  S
C86         C546   1.470       .  S
C88         C474   1.492       .  S
Fe89        O105   2.047       .  S
Fe89         O95   2.048       .  S
Fe89        O102   2.066       .  S
Fe89         O94   2.053       .  S
Fe89        O100   1.952       .  S
Fe90         O93   2.048       .  S
Fe90         O97   2.093       .  S
Fe90        O101   2.077       .  S
Fe90        O106   2.075       .  S
Fe90        O100   1.952       .  S
Fe91        O109   2.100       .  S
Fe91         O96   2.057       .  S
Fe91        O103   2.089       .  S
Fe91         O92   2.082       .  S
Fe91        O100   1.962       .  S
O92          C99   1.280       .  A
O93         C107   1.269       .  A
O94          C99   1.276       .  A
O95          C98   1.260       .  A
O96         C108   1.267       .  A
O97         C110   1.280       .  A
C98         O103   1.270       .  A
C98         C522   1.499       .  S
C99         C330   1.477       .  S
O101        C104   1.265       .  A
O102        C104   1.263       .  A
C104        C373   1.491   1_565  S
O105        C110   1.275       .  A
O106        C108   1.271       .  A
C107        O109   1.279       .  A
C107        C397   1.489       .  S
C108        C301   1.473       .  S
C110        C349   1.479       .  S
Fe111       O127   2.064       .  S
Fe111       O117   2.053       .  S
Fe111       O124   2.057       .  S
Fe111       O116   2.047       .  S
Fe111       O122   1.959       .  S
Fe112       O115   2.056       .  S
Fe112       O119   2.073       .  S
Fe112       O123   2.078       .  S
Fe112       O128   2.070       .  S
Fe112       O122   1.965       .  S
Fe113       O131   2.084       .  S
Fe113       O118   2.054       .  S
Fe113       O125   2.087       .  S
Fe113       O114   2.074       .  S
Fe113       O122   1.972       .  S
O114        C121   1.274       .  A
O115        C129   1.267       .  A
O116        C121   1.271       .  A
O117        C120   1.265       .  A
O118        C130   1.268       .  A
O119        C132   1.276       .  A
C120        O125   1.270       .  A
C120        C618   1.502       .  S
C121        C325   1.485       .  S
O123        C126   1.265       .  A
O124        C126   1.261       .  A
C126        C258   1.486       .  S
O127        C132   1.275       .  A
O128        C130   1.272       .  A
C129        O131   1.274       .  A
C129        C277   1.489       .  S
C130        C229   1.468       .  S
C132        C354   1.463       .  S
Fe133       O149   2.057       .  S
Fe133       O139   2.067       .  S
Fe133       O146   2.078       .  S
Fe133       O138   2.050       .  S
Fe133       O144   1.968       .  S
Fe134       O137   2.076       .  S
Fe134       O141   2.069       .  S
Fe134       O145   2.078       .  S
Fe134       O150   2.053       .  S
Fe134       O144   1.963       .  S
Fe135       O153   2.057       .  S
Fe135       O140   2.085       .  S
Fe135       O147   2.066       .  S
Fe135       O136   2.068       .  S
Fe135       O144   1.971       .  S
O136        C143   1.266       .  A
O137        C151   1.275       .  A
O138        C143   1.262       .  A
O139        C142   1.277       .  A
O140        C152   1.270       .  A
O141        C154   1.262       .  A
C142        O147   1.273       .  A
C142        C205   1.489       .  S
C143        C450   1.483       .  S
O145        C148   1.280       .  A
O146        C148   1.280       .  A
C148        C181   1.483       .  S
O149        C154   1.261       .  A
O150        C152   1.265       .  A
C151        O153   1.271       .  A
C151        C234   1.495       .  S
C152        C378   1.488       .  S
C154        C402   1.493       .  S
Fe155       O171   2.052       .  S
Fe155       O161   2.060       .  S
Fe155       O168   2.058       .  S
Fe155       O160   2.055       .  S
Fe155       O166   1.954       .  S
Fe156       O159   2.089       .  S
Fe156       O163   2.084       .  S
Fe156       O167   2.102       .  S
Fe156       O172   2.067       .  S
Fe156       O166   1.957       .  S
Fe157       O175   2.046       .  S
Fe157       O162   2.082       .  S
Fe157       O169   2.076       .  S
Fe157       O158   2.074       .  S
Fe157       O166   1.959       .  S
O158        C165   1.267       .  A
O159        C173   1.277       .  A
O160        C165   1.261       .  A
O161        C164   1.275       .  A
O162        C174   1.273       .  A
O163        C176   1.264       .  A
C164        O169   1.276       .  A
C164        C210   1.472       .  S
C165        C426   1.486       .  S
O167        C170   1.284       .  A
O168        C170   1.278       .  A
C170        C186   1.483       .  S
O171        C176   1.260       .  A
O172        C174   1.271       .  A
C173        O175   1.267       .  A
C173        C306   1.493       .  S
C174        C253   1.501       .  S
C176        C282   1.502       .  S
C177        C178   1.411       .  A
C177        C182   1.404       .  A
C177        C191   1.444       .  S
C178        C183   1.484       .  S
C178        C179   1.399       .  A
C179        C180   1.398       .  A
C179        H198   1.085       .  S
C180        C181   1.415       .  A
C180        C192   1.444       .  S
C181        C182   1.406       .  A
C182        H197   1.085       .  S
C183        C184   1.401       .  A
C183        C188   1.411       .  A
C184        C185   1.400       .  A
C184        H199   1.085       .  S
C185        C186   1.416       .  A
C185        C189   1.444       .  S
C186        C187   1.405       .  A
C187        C188   1.401       .  A
C187        H200   1.085       .  S
C188        C190   1.444       .  S
C189        N193   1.157       .  T
C190        N194   1.157   1_545  T
C191        N196   1.157       .  T
C192        N195   1.157       .  T
C201        C202   1.406       .  A
C201        C206   1.399       .  A
C201        C215   1.444       .  S
C202        C207   1.472   1_554  S
C202        C203   1.395       .  A
C203        C204   1.396       .  A
C203        H222   1.085   1_554  S
C204        C205   1.423       .  A
C204        C216   1.444       .  S
C205        C206   1.409       .  A
C206        H221   1.084       .  S
C207        C208   1.401       .  A
C207        C212   1.405       .  A
C208        C209   1.398       .  A
C208        H223   1.085       .  S
C209        C210   1.413       .  A
C209        C213   1.445       .  S
C210        C211   1.405       .  A
C211        C212   1.396       .  A
C211        H224   1.085       .  S
C212        C214   1.443       .  S
C213        N217   1.157       .  T
C214        N218   1.157   1_556  T
C215        N220   1.157       .  T
C216        N219   1.157       .  T
C225        C226   1.411       .  A
C225        C230   1.399       .  A
C225        C239   1.444   1_556  S
C226        C231   1.481   1_666  S
C226        C227   1.403   1_655  A
C227        C228   1.399   1_455  A
C227        H246   1.085   1_565  S
C228        C229   1.410       .  A
C228        C240   1.445       .  S
C229        C230   1.402       .  A
C230        H245   1.085       .  S
C231        C232   1.402   1_545  A
C231        C236   1.405       .  A
C232        C233   1.403       .  A
C232        H247   1.085       .  S
C233        C234   1.418   1_565  A
C233        C237   1.443       .  S
C234        C235   1.413       .  A
C235        C236   1.396       .  A
C235        H248   1.084       .  S
C236        C238   1.445   1_454  S
C237        N241   1.157       .  T
C238        N242   1.157       .  T
C239        N244   1.157       .  T
C240        N243   1.157       .  T
C249        C250   1.409       .  A
C249        C254   1.403       .  A
C249        C263   1.444       .  S
C250        C255   1.492       .  S
C250        C251   1.402       .  A
C251        C252   1.408       .  A
C251        H270   1.085       .  S
C252        C253   1.422       .  A
C252        C264   1.444       .  S
C253        C254   1.410       .  A
C254        H269   1.084       .  S
C255        C256   1.405       .  A
C255        C260   1.411       .  A
C256        C257   1.408       .  A
C256        H271   1.084       .  S
C257        C258   1.413   1_545  A
C257        C261   1.443       .  S
C258        C259   1.405       .  A
C259        C260   1.403   1_565  A
C259        H272   1.085       .  S
C260        C262   1.444   1_545  S
C261        N265   1.157       .  T
C262        N266   1.157       .  T
C263        N268   1.157   1_545  T
C264        N267   1.157       .  T
C273        C274   1.411       .  A
C273        C278   1.404       .  A
C273        C287   1.443       .  S
C274        C279   1.498       .  S
C274        C275   1.407       .  A
C275        C276   1.405   1_455  A
C275        H294   1.085       .  S
C276        C277   1.415       .  A
C276        C288   1.445       .  S
C277        C278   1.407   1_655  A
C278        H293   1.085       .  S
C279        C280   1.407       .  A
C279        C284   1.410       .  A
C280        C281   1.411       .  A
C280        H295   1.084       .  S
C281        C282   1.419   1_565  A
C281        C285   1.443       .  S
C282        C283   1.410       .  A
C283        C284   1.398   1_545  A
C283        H296   1.084       .  S
C284        C286   1.445   1_565  S
C285        N289   1.157       .  T
C286        N290   1.157       .  T
C287        N292   1.157       .  T
C288        N291   1.157       .  T
C297        C298   1.414       .  A
C297        C302   1.400       .  A
C297        C311   1.445   1_565  S
C298        C303   1.492   1_564  S
C298        C299   1.406       .  A
C299        C300   1.401       .  A
C299        H318   1.084   1_554  S
C300        C301   1.409       .  A
C300        C312   1.444       .  S
C301        C302   1.402       .  A
C302        H317   1.085       .  S
C303        C304   1.401       .  A
C303        C308   1.413   1_545  A
C304        C305   1.398       .  A
C304        H319   1.085   1_556  S
C305        C306   1.422       .  A
C305        C309   1.446       .  S
C306        C307   1.407   1_545  A
C307        C308   1.404       .  A
C307        H320   1.084       .  S
C308        C310   1.444       .  S
C309        N313   1.158       .  T
C310        N314   1.157       .  T
C311        N316   1.157       .  T
C312        N315   1.157       .  T
C321        C322   1.404       .  A
C321        C326   1.397       .  A
C321        C335   1.444   1_556  S
C322        C327   1.473   1_556  S
C322        C323   1.399       .  A
C323        C324   1.396       .  A
C323        H342   1.085       .  S
C324        C325   1.418       .  A
C324        C336   1.445       .  S
C325        C326   1.411       .  A
C326        H341   1.084       .  S
C327        C328   1.401       .  A
C327        C332   1.405       .  A
C328        C329   1.400       .  A
C328        H343   1.085       .  S
C329        C330   1.416       .  A
C329        C333   1.444       .  S
C330        C331   1.406       .  A
C331        C332   1.394       .  A
C331        H344   1.085       .  S
C332        C334   1.445       .  S
C333        N337   1.157       .  T
C334        N338   1.157       .  T
C335        N340   1.157       .  T
C336        N339   1.157       .  T
C345        C346   1.411       .  A
C345        C350   1.397       .  A
C345        C359   1.444       .  S
C346        C351   1.486       .  S
C346        C347   1.404       .  A
C347        C348   1.400       .  A
C347        H366   1.085       .  S
C348        C349   1.414       .  A
C348        C360   1.444       .  S
C349        C350   1.405       .  A
C350        H365   1.085       .  S
C351        C352   1.404       .  A
C351        C356   1.414       .  A
C352        C353   1.396       .  A
C352        H367   1.085       .  S
C353        C354   1.408       .  A
C353        C357   1.445       .  S
C354        C355   1.400       .  A
C355        C356   1.401       .  A
C355        H368   1.085       .  S
C356        C358   1.444       .  S
C357        N361   1.157       .  T
C358        N362   1.157       .  T
C359        N364   1.157       .  T
C360        N363   1.157   1_565  T
C369        C370   1.408       .  A
C369        C374   1.401       .  A
C369        C383   1.445       .  S
C370        C375   1.487       .  S
C370        C371   1.405       .  A
C371        C372   1.407       .  A
C371        H390   1.085       .  S
C372        C373   1.415       .  A
C372        C384   1.443       .  S
C373        C374   1.408       .  A
C374        H389   1.085   1_545  S
C375        C376   1.396       .  A
C375        C380   1.412       .  A
C376        C377   1.394   1_655  A
C376        H391   1.086       .  S
C377        C378   1.418       .  A
C377        C381   1.445       .  S
C378        C379   1.407       .  A
C379        C380   1.412   1_455  A
C379        H392   1.084       .  S
C380        C382   1.442       .  S
C381        N385   1.157       .  T
C382        N386   1.157       .  T
C383        N388   1.157       .  T
C384        N387   1.157       .  T
C393        C394   1.410       .  A
C393        C398   1.407       .  A
C393        C407   1.443       .  S
C394        C399   1.490       .  S
C394        C395   1.401       .  A
C395        C396   1.403       .  A
C395        H414   1.085       .  S
C396        C397   1.417       .  A
C396        C408   1.445       .  S
C397        C398   1.407       .  A
C398        H413   1.085       .  S
C399        C400   1.403       .  A
C399        C404   1.411       .  A
C400        C401   1.408       .  A
C400        H415   1.084       .  S
C401        C402   1.418   1_565  A
C401        C405   1.443       .  S
C402        C403   1.407       .  A
C403        C404   1.401   1_545  A
C403        H416   1.085       .  S
C404        C406   1.445   1_565  S
C405        N409   1.157       .  T
C406        N410   1.157       .  T
C407        N412   1.157       .  T
C408        N411   1.157       .  T
C417        C418   1.417       .  A
C417        C422   1.406       .  A
C417        C431   1.443       .  S
C418        C423   1.499       .  S
C418        C419   1.399       .  A
C419        C420   1.398       .  A
C419        H438   1.085       .  S
C420        C421   1.426       .  A
C420        C432   1.446       .  S
C421        C422   1.405       .  A
C422        H437   1.084       .  S
C423        C424   1.404       .  A
C423        C428   1.417       .  A
C424        C425   1.401       .  A
C424        H439   1.085       .  S
C425        C426   1.416       .  A
C425        C429   1.444       .  S
C426        C427   1.404       .  A
C427        C428   1.404       .  A
C427        H440   1.085       .  S
C428        C430   1.444       .  S
C429        N433   1.157       .  T
C430        N434   1.157       .  T
C431        N436   1.157       .  T
C432        N435   1.158       .  T
C441        C442   1.405       .  A
C441        C446   1.393       .  A
C441        C455   1.445       .  S
C442        C447   1.488       .  S
C442        C443   1.409       .  A
C443        C444   1.409       .  A
C443        H462   1.085       .  S
C444        C445   1.414       .  A
C444        C456   1.443       .  S
C445        C446   1.411       .  A
C446        H461   1.085       .  S
C447        C448   1.403       .  A
C447        C452   1.409       .  A
C448        C449   1.400       .  A
C448        H463   1.085       .  S
C449        C450   1.415       .  A
C449        C453   1.443       .  S
C450        C451   1.407       .  A
C451        C452   1.402       .  A
C451        H464   1.085       .  S
C452        C454   1.444       .  S
C453        N457   1.157       .  T
C454        N458   1.157       .  T
C455        N460   1.157       .  T
C456        N459   1.157       .  T
C465        C466   1.408       .  A
C465        C470   1.397       .  A
C465        C479   1.445       .  S
C466        C471   1.482   1_554  S
C466        C467   1.401       .  A
C467        C468   1.400       .  A
C467        H486   1.085       .  S
C468        C469   1.419       .  A
C468        C480   1.444       .  S
C469        C470   1.410       .  A
C470        H485   1.084       .  S
C471        C472   1.402       .  A
C471        C476   1.407       .  A
C472        C473   1.400       .  A
C472        H487   1.085       .  S
C473        C474   1.419       .  A
C473        C477   1.444       .  S
C474        C475   1.411       .  A
C475        C476   1.397       .  A
C475        H488   1.084       .  S
C476        C478   1.445       .  S
C477        N481   1.158       .  T
C478        N482   1.157       .  T
C479        N484   1.157       .  T
C480        N483   1.157       .  T
C489        C490   1.410       .  A
C489        C494   1.398       .  A
C489        C503   1.444       .  S
C490        C495   1.482       .  S
C490        C491   1.401       .  A
C491        C492   1.400       .  A
C491        H510   1.085       .  S
C492        C493   1.417       .  A
C492        C504   1.445       .  S
C493        C494   1.406       .  A
C494        H509   1.085       .  S
C495        C496   1.401       .  A
C495        C500   1.411       .  A
C496        C497   1.399       .  A
C496        H511   1.085       .  S
C497        C498   1.414       .  A
C497        C501   1.444       .  S
C498        C499   1.406       .  A
C499        C500   1.400       .  A
C499        H512   1.085       .  S
C500        C502   1.445       .  S
C501        N505   1.157       .  T
C502        N506   1.157       .  T
C503        N508   1.157       .  T
C504        N507   1.157       .  T
C513        C514   1.414       .  A
C513        C518   1.402       .  A
C513        C527   1.444       .  S
C514        C519   1.496       .  S
C514        C515   1.403       .  A
C515        C516   1.404       .  A
C515        H534   1.085       .  S
C516        C517   1.420       .  A
C516        C528   1.445       .  S
C517        C518   1.407       .  A
C518        H533   1.085       .  S
C519        C520   1.397       .  A
C519        C524   1.415       .  A
C520        C521   1.397       .  A
C520        H535   1.085       .  S
C521        C522   1.425       .  A
C521        C525   1.446       .  S
C522        C523   1.408       .  A
C523        C524   1.411       .  A
C523        H536   1.084       .  S
C524        C526   1.443       .  S
C525        N529   1.157       .  T
C526        N530   1.157       .  T
C527        N532   1.157       .  T
C528        N531   1.157       .  T
C537        C538   1.408       .  A
C537        C542   1.399       .  A
C537        C551   1.444       .  S
C538        C543   1.472   1_655  S
C538        C539   1.397       .  A
C539        C540   1.391       .  A
C539        H558   1.086       .  S
C540        C541   1.417       .  A
C540        C552   1.445       .  S
C541        C542   1.406       .  A
C542        H557   1.085       .  S
C543        C544   1.402       .  A
C543        C548   1.407       .  A
C544        C545   1.396       .  A
C544        H559   1.085       .  S
C545        C546   1.410       .  A
C545        C549   1.444       .  S
C546        C547   1.406       .  A
C547        C548   1.395       .  A
C547        H560   1.085       .  S
C548        C550   1.445   1_455  S
C549        N553   1.157       .  T
C550        N554   1.157       .  T
C551        N556   1.157   1_655  T
C552        N555   1.157       .  T
C561        C562   1.411       .  A
C561        C566   1.403       .  A
C561        C575   1.444       .  S
C562        C567   1.492       .  S
C562        C563   1.403       .  A
C563        C564   1.407       .  A
C563        H582   1.084       .  S
C564        C565   1.416       .  A
C564        C576   1.444       .  S
C565        C566   1.408       .  A
C566        H581   1.085       .  S
C567        C568   1.403       .  A
C567        C572   1.411       .  A
C568        C569   1.403       .  A
C568        H583   1.085       .  S
C569        C570   1.414       .  A
C569        C573   1.445       .  S
C570        C571   1.406       .  A
C571        C572   1.408       .  A
C571        H584   1.084       .  S
C572        C574   1.443       .  S
C573        N577   1.158       .  T
C574        N578   1.157       .  T
C575        N580   1.157       .  T
C576        N579   1.157       .  T
C585        C586   1.411       .  A
C585        C590   1.404   1_455  A
C585        C599   1.444       .  S
C586        C591   1.491       .  S
C586        C587   1.402       .  A
C587        C588   1.404       .  A
C587        H606   1.085       .  S
C588        C589   1.416   1_455  A
C588        C600   1.443       .  S
C589        C590   1.408       .  A
C590        H605   1.085       .  S
C591        C592   1.405       .  A
C591        C596   1.413       .  A
C592        C593   1.407       .  A
C592        H607   1.084       .  S
C593        C594   1.413       .  A
C593        C597   1.444       .  S
C594        C595   1.402       .  A
C595        C596   1.400       .  A
C595        H608   1.085       .  S
C596        C598   1.445       .  S
C597        N601   1.157       .  T
C598        N602   1.157       .  T
C599        N604   1.157       .  T
C600        N603   1.157       .  T
C609        C610   1.416       .  A
C609        C614   1.408       .  A
C609        C623   1.443       .  S
C610        C615   1.500       .  S
C610        C611   1.404       .  A
C611        C612   1.399       .  A
C611        H630   1.085       .  S
C612        C613   1.416       .  A
C612        C624   1.445       .  S
C613        C614   1.406       .  A
C614        H629   1.085       .  S
C615        C616   1.408       .  A
C615        C620   1.411       .  A
C616        C617   1.410       .  A
C616        H631   1.084       .  S
C617        C618   1.418       .  A
C617        C621   1.443       .  S
C618        C619   1.411       .  A
C619        C620   1.398       .  A
C619        H632   1.084       .  S
C620        C622   1.446       .  S
C621        N625   1.157       .  T
C622        N626   1.157       .  T
C623        N628   1.157       .  T
C624        N627   1.157       .  T
C633        C634   1.408       .  A
C633        C638   1.398       .  A
C633        C647   1.443       .  S
C634        C639   1.469       .  S
C634        C635   1.395       .  A
C635        C636   1.393       .  A
C635        H654   1.086       .  S
C636        C637   1.418       .  A
C636        C648   1.443       .  S
C637        C638   1.404       .  A
C638        H653   1.085       .  S
C639        C640   1.394       .  A
C639        C644   1.408       .  A
C640        C641   1.390       .  A
C640        H655   1.087       .  S
C641        C642   1.416       .  A
C641        C645   1.442       .  S
C642        C643   1.406       .  A
C643        C644   1.401       .  A
C643        H656   1.086       .  S
C644        C646   1.443       .  S
C645        N649   1.156       .  T
C646        N650   1.157       .  T
C647        N652   1.157       .  T
C648        N651   1.156       .  T
C657        C658   1.406       .  A
C657        C662   1.397       .  A
C657        C671   1.444       .  S
C658        C663   1.478       .  S
C658        C659   1.402       .  A
C659        C660   1.400       .  A
C659        H678   1.085       .  S
C660        C661   1.414       .  A
C660        C672   1.444       .  S
C661        C662   1.408       .  A
C662        H677   1.085       .  S
C663        C664   1.405       .  A
C663        C668   1.408       .  A
C664        C665   1.403       .  A
C664        H679   1.084       .  S
C665        C666   1.409       .  A
C665        C669   1.444       .  S
C666        C667   1.401       .  A
C667        C668   1.393       .  A
C667        H680   1.084       .  S
C668        C670   1.445       .  S
C669        N673   1.157       .  T
C670        N674   1.157       .  T
C671        N676   1.157       .  T
C672        N675   1.157       .  T
C681        C682   1.409       .  A
C681        C686   1.399       .  A
C681        C695   1.444       .  S
C682        C687   1.475   1_556  S
C682        C683   1.399       .  A
C683        C684   1.396       .  A
C683        H702   1.085       .  S
C684        C685   1.414       .  A
C684        C696   1.445       .  S
C685        C686   1.404       .  A
C686        H701   1.085       .  S
C687        C688   1.405       .  A
C687        C692   1.407       .  A
C688        C689   1.401       .  A
C688        H703   1.085       .  S
C689        C690   1.408       .  A
C689        C693   1.444       .  S
C690        C691   1.405       .  A
C691        C692   1.394       .  A
C691        H704   1.086       .  S
C692        C694   1.444       .  S
C693        N697   1.157       .  T
C694        N698   1.157       .  T
C695        N700   1.157       .  T
C696        N699   1.157       .  T
C705        C706   1.413       .  A
C705        C710   1.407       .  A
C705        C719   1.444       .  S
C706        C711   1.495       .  S
C706        C707   1.404       .  A
C707        C708   1.403       .  A
C707        H726   1.085       .  S
C708        C709   1.412       .  A
C708        C720   1.444       .  S
C709        C710   1.407       .  A
C710        H725   1.085       .  S
C711        C712   1.405       .  A
C711        C716   1.411       .  A
C712        C713   1.408       .  A
C712        H727   1.084       .  S
C713        C714   1.417   1_655  A
C713        C717   1.444       .  S
C714        C715   1.408       .  A
C715        C716   1.401   1_455  A
C715        H728   1.085       .  S
C716        C718   1.445       .  S
C717        N721   1.157       .  T
C718        N722   1.157       .  T
C719        N724   1.157       .  T
C720        N723   1.157       .  T
C729        C730   1.410       .  A
C729        C734   1.400       .  A
C729        C743   1.444       .  S
C730        C735   1.486       .  S
C730        C731   1.401       .  A
C731        C732   1.405       .  A
C731        H750   1.084       .  S
C732        C733   1.417       .  A
C732        C744   1.443       .  S
C733        C734   1.406       .  A
C734        H749   1.085       .  S
C735        C736   1.405       .  A
C735        C740   1.410       .  A
C736        C737   1.409       .  A
C736        H751   1.084       .  S
C737        C738   1.414       .  A
C737        C741   1.443       .  S
C738        C739   1.404       .  A
C739        C740   1.394       .  A
C739        H752   1.086       .  S
C740        C742   1.445       .  S
C741        N745   1.157       .  T
C742        N746   1.157       .  T
C743        N748   1.157       .  T
C744        N747   1.157       .  T
