geometry optimzed in LAMMPS
_audit_creation_date              2020-11-30 
_audit_creation_method            'lammps2cif' 
_symmetry_space_group_name_H-M    'P1' 
_symmetry_Int_Tables_number       1 
_symmetry_cell_setting            triclinic 
loop_ 
_symmetry_equiv_pos_as_xyz 
  x,y,z 
_cell_length_a                    39.47430324569232 
_cell_length_b                    38.25628384189361 
_cell_length_c                    42.856165733332816 
_cell_angle_alpha                 89.89467962830228 
_cell_angle_beta                  118.25694521939334 
_cell_angle_gamma                 89.87429527857421 
loop_ 
_atom_site_label 
_atom_site_type_symbol 
_atom_site_fract_x 
_atom_site_fract_y 
_atom_site_fract_z 
_atom_site_charge 
O1          O  0.11975223  0.12937135  0.23503849    -0.86210
O2          O  0.07994004  0.10968680  0.16618777    -0.83250
C3          C  0.04505170  0.11240553  0.15999454     0.97260
O4          O  0.03263472  0.14122313  0.16375712    -0.83290
O5          O  0.02290129  0.20939397  0.17441033    -0.85930
C6          C  0.03312959  0.21016788  0.20733126     1.01780
O7          O  0.06592297  0.20033975  0.22918025    -0.78690
O8          O  0.13854123  0.17972820  0.26126935    -0.78880
C9          C  0.12831216  0.14826289  0.26153306     1.01730
O10         O  0.17427163  0.17229274  0.22152837    -0.86200
O11         O  0.12892430  0.15543443  0.15113583    -0.83270
C12         C  0.10006004  0.15122237  0.12128303     0.97280
O13         O  0.06641060  0.15702171  0.11759820    -0.83290
O14         O  0.06271203  0.22646295  0.13436322    -0.85900
C15         C  0.06208210  0.25301039  0.15118455     1.01750
O16         O  0.07736174  0.25178886  0.18493572    -0.78720
O17         O  0.15176019  0.22611753  0.21366100    -0.78870
C18         C  0.17936279  0.20540429  0.22182040     1.01710
Cr19       Cr  0.12435111  0.14407031  0.19350456     1.93740
Cr20       Cr  0.04909781  0.18317012  0.14968946     1.93210
Cr21       Cr  0.10796009  0.21268681  0.22006975     1.39100
O22         O  0.09431842  0.18041107  0.18728762    -1.23960
O23         O  0.14087049  0.05909975  0.01134906    -0.86210
O24         O  0.07014195  0.03504552  0.48152101    -0.83250
C25         C  0.03711305  0.02580820  0.45996256     0.97260
O26         O  0.02544822  0.02813440  0.42671019    -0.83410
O27         O  0.03215445  0.09625243  0.41289110    -0.85930
C28         C  0.04393050  0.12492793  0.40809174     1.01780
O29         O  0.07896790  0.12794894  0.41499062    -0.78690
O30         O  0.11905312  0.10902070  0.48455555    -0.78880
C31         C  0.12885842  0.09006479  0.01138036     1.01730
O32         O  0.15368667  0.01387341  0.46205940    -0.86200
O33         O  0.08124744  0.48604320  0.43675533    -0.83270
C34         C  0.06531751  0.48421805  0.40315986     0.97280
O35         O  0.06490062  0.01058371  0.38565149    -0.83290
O36         O  0.06666686  0.07969868  0.36747498    -0.85900
C37         C  0.10021295  0.08598440  0.37118932     1.01750
O38         O  0.12905364  0.08279636  0.40125324    -0.78720
O39         O  0.17497497  0.06781464  0.47177529    -0.78870
C40         C  0.18070630  0.03502857  0.47068986     1.01710
Cr41       Cr  0.11114056  0.02537679  0.47074567     1.93740
Cr42       Cr  0.05011976  0.05397575  0.40033888     1.93210
Cr43       Cr  0.12414582  0.09461216  0.44322154     1.39100
O44         O  0.09523684  0.05780171  0.43778197    -1.23960
O45         O  0.36217018  0.30916222  0.22585518    -0.86210
O46         O  0.43567038  0.28989621  0.26018801    -0.83250
C47         C  0.46822600  0.28020096  0.28289384     0.97260
O48         O  0.47730175  0.28131085  0.31555585    -0.83290
O49         O  0.46637883  0.35001427  0.32660808    -0.85930
C50         C  0.45167710  0.37835547  0.32871126     1.01780
O51         O  0.41614381  0.37958862  0.32068359    -0.78690
O52         O  0.37765216  0.35994486  0.25180529    -0.78880
C53         C  0.37087149  0.34109678  0.22565559     1.01730
O54         O  0.34782123  0.26220872  0.27209568    -0.86200
O55         O  0.42279480  0.23811467  0.30301886    -0.83270
C56         C  0.43671763  0.23706209  0.33660651     0.97280
O57         O  0.43467103  0.26349280  0.35283389    -0.83290
O58         O  0.43019315  0.33258893  0.36942362    -0.85900
C59         C  0.39620445  0.33820426  0.36473506     1.01750
O60         O  0.36792505  0.33233890  0.33501709    -0.78720
O61         O  0.32413231  0.31553466  0.26444886    -0.78870
C62         C  0.31973823  0.28237466  0.26379808     1.01710
Cr63       Cr  0.39249693  0.27675864  0.26746459     1.93740
Cr64       Cr  0.44914228  0.30702932  0.33868788     1.93210
Cr65       Cr  0.37304203  0.34448110  0.29306841     1.39100
O66         O  0.40453217  0.30920824  0.29998297    -1.23960
O67         O  0.38473831  0.38446892  0.50352144    -0.86210
O68         O  0.42103811  0.36422487  0.07260606    -0.83250
C69         C  0.45686342  0.36796445  0.08236656     0.97260
O70         O  0.46938432  0.39752238  0.08088152    -0.83290
O71         O  0.47628292  0.46697998  0.07031965    -0.85930
C72         C  0.46851397  0.46895592  0.03793659     1.01780
O73         O  0.43670833  0.45923674  0.01399456    -0.78690
O74         O  0.36550795  0.43501040  0.47715878    -0.78880
C75         C  0.37679946  0.40375947  0.47732240     1.01730
O76         O  0.32541096  0.42401343  0.01242453    -0.86200
O77         O  0.36635295  0.40733151  0.08276361    -0.83270
C78         C  0.39344140  0.40354518  0.11352240     0.97280
O79         O  0.42776097  0.41073916  0.12008010    -0.83290
O80         O  0.42850202  0.48018676  0.10407847    -0.85900
C81         C  0.43017977  0.00728397  0.08851960     1.01750
O82         O  0.41766616  0.00673816  0.05517280    -0.78720
O83         O  0.34574965  0.47829137  0.02286905    -0.78870
C84         C  0.31898636  0.45671412  0.01313783     1.01710
Cr85       Cr  0.37589524  0.39740495  0.04301034     1.93740
Cr86       Cr  0.44770925  0.43856930  0.09143153     1.93210
Cr87       Cr  0.39166687  0.46779980  0.01931295     1.39100
O88         O  0.40492408  0.43466461  0.05141097    -1.23960
C89         C  0.35399692  0.39324398  0.41279442    -0.10010
C90         C  0.38218427  0.38895855  0.44804730     0.06180
C91         C  0.41505657  0.36842165  0.45547217    -0.03780
C92         C  0.41848979  0.35165841  0.42818239    -0.08230
C93         C  0.38985434  0.35486269  0.39292281     0.05300
C94         C  0.35747155  0.37655566  0.38527342    -0.03260
Br95       Br  0.31792307  0.38677342  0.33801022    -0.02950
H96         H  0.32892350  0.40925443  0.40665253     0.09210
H97         H  0.44402549  0.33621563  0.43463762     0.07230
Br98       Br  0.45780593  0.36378577  0.00216883    -0.03380
C99         C  0.41267257  0.39310393  0.17663524    -0.10010
C100        C  0.38546628  0.38826350  0.14125678     0.06180
C101        C  0.35276605  0.36711971  0.13348997    -0.03780
C102        C  0.34853896  0.35133898  0.16107367    -0.08230
C103        C  0.37581901  0.35667378  0.19643398     0.05300
C104        C  0.40811448  0.37783105  0.20389955    -0.03260
Br105      Br  0.44885174  0.38571989  0.25061498    -0.02950
H106        H  0.43800738  0.40878536  0.18327597     0.09210
H107        H  0.32364847  0.33518623  0.15489229     0.07230
Br108      Br  0.31330150  0.35711497  0.08623342    -0.03380
C109        C  0.23740092  0.50435118  0.01627137    -0.10010
C110        C  0.21882690  0.01935940  0.48230129     0.06180
C111        C  0.23107877  0.01016750  0.45745743    -0.03780
C112        C  0.26196561  0.48690935  0.46702591    -0.08230
C113        C  0.28052631  0.47185790  0.00101856     0.05300
C114        C  0.26825143  0.48113042  0.02583822    -0.03260
Br115      Br  0.29360798  0.46345554  0.07343319    -0.02950
H116        H  0.22720521  0.51006443  0.03517239     0.09210
H117        H  0.27230527  0.48135029  0.44820491     0.07230
Br118      Br  0.20597123  0.02845671  0.41009294    -0.03380
C119        C  0.51105471  0.46264873  0.51206099    -0.10010
C120        C  0.49348297  0.48510041  0.02568003     0.06180
C121        C  0.48776410  0.02044717  0.01482052    -0.03780
C122        C  0.99846906  0.03238219  0.48999360    -0.08230
C123        C  0.01527508  0.00975310  0.47572003     0.05300
C124        C  0.02279345  0.47472714  0.48802736    -0.03260
Br125      Br  0.05081580  0.44193166  0.47535641    -0.02950
H126        H  0.51452524  0.43520123  0.51931904     0.09210
H127        H  0.99513766  0.05987029  0.48289809     0.07230
Br128      Br  0.46504448  0.05388941  0.03229283    -0.03380
C129        C  0.01220192  0.40948407  0.34109558    -0.10010
C130        C  0.47811853  0.40829544  0.34424330     0.06180
C131        C  0.47387807  0.43202601  0.36719285    -0.03780
C132        C  0.00352829  0.45518376  0.38694240    -0.08230
C133        C  0.03769452  0.45602426  0.38432664     0.05300
C134        C  0.04145381  0.43355880  0.36034847    -0.03260
Br135      Br  0.08645172  0.43407614  0.35415201    -0.02950
H136        H  0.01653623  0.39112794  0.32412279     0.09210
H137        H  0.99938536  0.47259560  0.40444992     0.07230
Br138      Br  0.42995099  0.43309233  0.37520845    -0.03380
C139        C  0.45098893  0.17380555  0.34922381    -0.10010
C140        C  0.46278642  0.20844400  0.35733313     0.06180
C141        C  0.50114836  0.21552075  0.38331610    -0.03780
C142        C  0.02710048  0.18808705  0.39954245    -0.08230
C143        C  0.01544720  0.15336398  0.39139638     0.05300
C144        C  0.47652634  0.14628836  0.36639864    -0.03260
Br145      Br  0.45613708  0.09994400  0.35245115    -0.02950
H146        H  0.42180330  0.16813331  0.32926086     0.09210
H147        H  0.05657648  0.19394534  0.41867096     0.07230
Br148      Br  0.02110000  0.26201109  0.39666720    -0.03380
C149        C  0.08625740  0.11752694  0.28083906    -0.10010
C150        C  0.12185743  0.13366338  0.29033102     0.06180
C151        C  0.15015759  0.13311262  0.32593513    -0.03780
C152        C  0.14253275  0.11683459  0.35128880    -0.08230
C153        C  0.10666668  0.10088241  0.34208594     0.05300
C154        C  0.07834008  0.10145535  0.30612248    -0.03260
Br155      Br  0.02881874  0.08003869  0.28920464    -0.02950
H156        H  0.06426671  0.11741571  0.25330659     0.09210
H157        H  0.16503607  0.11695975  0.37857599     0.07230
Br158      Br  0.20033052  0.15212765  0.34085515    -0.03380
C159        C  0.14117025  0.11721639  0.10189122    -0.10010
C160        C  0.10654973  0.13582649  0.09239473     0.06180
C161        C  0.07938214  0.13785971  0.05614766    -0.03780
C162        C  0.08750596  0.12236581  0.03076171    -0.08230
C163        C  0.12211167  0.10403501  0.04035936     0.05300
C164        C  0.14889646  0.10124166  0.07640929    -0.03260
Br165      Br  0.19715983  0.07764640  0.09196059    -0.02950
H166        H  0.16250237  0.11475545  0.12949227     0.09210
H167        H  0.06638418  0.12464787  0.00303905     0.07230
Br168      Br  0.03132526  0.16232945  0.03910965    -0.03380
C169        C  0.47823385  0.09482320  0.11931466    -0.10010
C170        C  0.01607381  0.08450393  0.14378879     0.06180
C171        C  0.02392254  0.04891232  0.15208991    -0.03780
C172        C  0.49440623  0.02447407  0.13542022    -0.08230
C173        C  0.45706966  0.03482951  0.10996873     0.05300
C174        C  0.44897983  0.07039233  0.10237272    -0.03260
Br175      Br  0.39872859  0.08667697  0.06884444    -0.02950
H176        H  0.47142244  0.12217198  0.11259203     0.09210
H177        H  0.50114367  0.99698298  0.14127263     0.07230
Br178      Br  0.07376663  0.03241683  0.18624376    -0.03380
C179        C  0.47178261  0.30426670  0.09153225    -0.10010
C180        C  0.48502392  0.33875047  0.09786974     0.06180
C181        C  0.02508539  0.34460695  0.12023972    -0.03780
C182        C  0.04983710  0.31646038  0.13722134    -0.08230
C183        C  0.03628825  0.28220188  0.13115015     0.05300
C184        C  0.99694955  0.27615324  0.10723446    -0.03260
Br185      Br  0.47483874  0.23024239  0.09576306    -0.02950
H186        H  0.44159398  0.29905953  0.07423600     0.09210
H187        H  0.07993431  0.32134344  0.15519562     0.07230
Br188      Br  0.04896514  0.38992973  0.13026137    -0.03380
C189        C  0.23129181  0.22748951  0.20963127    -0.10010
C190        C  0.21759467  0.22155984  0.23399539     0.06180
C191        C  0.23599760  0.23846999  0.26717768    -0.03780
C192        C  0.26802776  0.25993385  0.27590742    -0.08230
C193        C  0.28178607  0.26573627  0.25162209     0.05300
C194        C  0.26320291  0.24917906  0.21828947    -0.03260
Br195      Br  0.28028433  0.25605228  0.18361137    -0.02950
H196        H  0.21648353  0.21603958  0.18345360     0.09210
H197        H  0.28264519  0.27163721  0.30198034     0.07230
Br198      Br  0.21790727  0.23342290  0.30129482    -0.03380
C199        C  0.48019466  0.22652943  0.25883737    -0.10010
C200        C  0.49068488  0.26138333  0.26928537     0.06180
C201        C  0.01232357  0.27962346  0.25645854    -0.03780
C202        C  0.02259771  0.26320962  0.23304374    -0.08230
C203        C  0.01168853  0.22853254  0.22222380     0.05300
C204        C  0.49100465  0.20992617  0.23584647    -0.03260
Br205      Br  0.47741566  0.16188137  0.22383159    -0.02950
H206        H  0.46237505  0.21256587  0.26763514     0.09210
H207        H  0.04059927  0.27709145  0.22439434     0.07230
Br208      Br  0.02910324  0.32654628  0.27099875    -0.03380
O209        O  0.11975223  0.12937135  0.73503849    -0.86210
O210        O  0.07994005  0.10968680  0.66618778    -0.83250
C211        C  0.04505170  0.11240553  0.65999455     0.97260
O212        O  0.03263473  0.14122312  0.66375713    -0.83290
O213        O  0.02290129  0.20939396  0.67441034    -0.85930
C214        C  0.03312959  0.21016787  0.70733127     1.01780
O215        O  0.06592297  0.20033974  0.72918025    -0.78690
O216        O  0.13854123  0.17972820  0.76126935    -0.78880
C217        C  0.12831216  0.14826289  0.76153306     1.01730
O218        O  0.17427163  0.17229274  0.72152837    -0.86200
O219        O  0.12892430  0.15543443  0.65113583    -0.83270
C220        C  0.10006004  0.15122237  0.62128303     0.97280
O221        O  0.06641059  0.15702170  0.61759821    -0.83290
O222        O  0.06271202  0.22646295  0.63436322    -0.85900
C223        C  0.06208209  0.25301038  0.65118455     1.01750
O224        O  0.07736174  0.25178885  0.68493572    -0.78720
O225        O  0.15176019  0.22611753  0.71366100    -0.78870
C226        C  0.17936279  0.20540429  0.72182040     1.01710
Cr227      Cr  0.12435111  0.14407031  0.69350456     1.93740
Cr228      Cr  0.04909780  0.18317012  0.64968946     1.93210
Cr229      Cr  0.10796009  0.21268680  0.72006975     1.39100
O230        O  0.09431842  0.18041106  0.68728762    -1.23960
O231        O  0.14087049  0.05909975  0.51134906    -0.86210
O232        O  0.07014196  0.03504552  0.98152101    -0.83250
C233        C  0.03711306  0.02580819  0.95996256     0.97260
O234        O  0.02544822  0.02813440  0.92671019    -0.83410
O235        O  0.03215445  0.09625242  0.91289110    -0.85930
C236        C  0.04393050  0.12492793  0.90809174     1.01780
O237        O  0.07896790  0.12794894  0.91499062    -0.78690
O238        O  0.11905312  0.10902070  0.98455555    -0.78880
C239        C  0.12885842  0.09006479  0.51138036     1.01730
O240        O  0.15368667  0.01387341  0.96205940    -0.86200
O241        O  0.08124744  0.48604320  0.93675532    -0.83270
C242        C  0.06531750  0.48421805  0.90315985     0.97280
O243        O  0.06490063  0.01058371  0.88565149    -0.83290
O244        O  0.06666686  0.07969868  0.86747498    -0.85900
C245        C  0.10021294  0.08598440  0.87118932     1.01750
O246        O  0.12905364  0.08279636  0.90125324    -0.78720
O247        O  0.17497497  0.06781464  0.97177529    -0.78870
C248        C  0.18070630  0.03502857  0.97068986     1.01710
Cr249      Cr  0.11114056  0.02537679  0.97074567     1.93740
Cr250      Cr  0.05011976  0.05397575  0.90033888     1.93210
Cr251      Cr  0.12414582  0.09461216  0.94322154     1.39100
O252        O  0.09523684  0.05780171  0.93778197    -1.23960
O253        O  0.36217017  0.30916222  0.72585518    -0.86210
O254        O  0.43567037  0.28989620  0.76018801    -0.83250
C255        C  0.46822600  0.28020095  0.78289384     0.97260
O256        O  0.47730175  0.28131085  0.81555585    -0.83290
O257        O  0.46637883  0.35001426  0.82660808    -0.85930
C258        C  0.45167710  0.37835547  0.82871126     1.01780
O259        O  0.41614381  0.37958861  0.82068359    -0.78690
O260        O  0.37765216  0.35994485  0.75180529    -0.78880
C261        C  0.37087149  0.34109678  0.72565559     1.01730
O262        O  0.34782123  0.26220872  0.77209569    -0.86200
O263        O  0.42279479  0.23811467  0.80301887    -0.83270
C264        C  0.43671763  0.23706208  0.83660651     0.97280
O265        O  0.43467103  0.26349280  0.85283389    -0.83290
O266        O  0.43019315  0.33258893  0.86942362    -0.85900
C267        C  0.39620445  0.33820426  0.86473506     1.01750
O268        O  0.36792505  0.33233891  0.83501709    -0.78720
O269        O  0.32413231  0.31553466  0.76444886    -0.78870
C270        C  0.31973823  0.28237467  0.76379808     1.01710
Cr271      Cr  0.39249693  0.27675864  0.76746459     1.93740
Cr272      Cr  0.44914227  0.30702932  0.83868788     1.93210
Cr273      Cr  0.37304203  0.34448110  0.79306841     1.39100
O274        O  0.40453217  0.30920824  0.79998297    -1.23960
O275        O  0.38473831  0.38446892  0.00352145    -0.86210
O276        O  0.42103810  0.36422487  0.57260606    -0.83250
C277        C  0.45686342  0.36796444  0.58236656     0.97260
O278        O  0.46938431  0.39752237  0.58088151    -0.83290
O279        O  0.47628291  0.46697998  0.57031964    -0.85930
C280        C  0.46851396  0.46895592  0.53793658     1.01780
O281        O  0.43670831  0.45923674  0.51399455    -0.78690
O282        O  0.36550796  0.43501040  0.97715878    -0.78880
C283        C  0.37679947  0.40375948  0.97732240     1.01730
O284        O  0.32541096  0.42401342  0.51242453    -0.86200
O285        O  0.36635295  0.40733150  0.58276361    -0.83270
C286        C  0.39344140  0.40354518  0.61352240     0.97280
O287        O  0.42776097  0.41073916  0.62008010    -0.83290
O288        O  0.42850202  0.48018676  0.60407847    -0.85900
C289        C  0.43017977  0.00728397  0.58851960     1.01750
O290        O  0.41766616  0.00673817  0.55517280    -0.78720
O291        O  0.34574964  0.47829136  0.52286905    -0.78870
C292        C  0.31898636  0.45671411  0.51313783     1.01710
Cr293      Cr  0.37589524  0.39740494  0.54301034     1.93740
Cr294      Cr  0.44770924  0.43856930  0.59143153     1.93210
Cr295      Cr  0.39166685  0.46779979  0.51931295     1.39100
O296        O  0.40492408  0.43466461  0.55141096    -1.23960
C297        C  0.35399693  0.39324399  0.91279442    -0.10010
C298        C  0.38218428  0.38895855  0.94804730     0.06180
C299        C  0.41505657  0.36842165  0.95547217    -0.03780
C300        C  0.41848979  0.35165842  0.92818239    -0.08230
C301        C  0.38985435  0.35486270  0.89292281     0.05300
C302        C  0.35747156  0.37655567  0.88527342    -0.03260
Br303      Br  0.31792308  0.38677344  0.83801022    -0.02950
H304        H  0.32892352  0.40925444  0.90665253     0.09210
H305        H  0.44402549  0.33621563  0.93463762     0.07230
Br306      Br  0.45780593  0.36378578  0.50216883    -0.03380
C307        C  0.41267257  0.39310392  0.67663523    -0.10010
C308        C  0.38546628  0.38826350  0.64125678     0.06180
C309        C  0.35276605  0.36711972  0.63348997    -0.03780
C310        C  0.34853895  0.35133898  0.66107367    -0.08230
C311        C  0.37581901  0.35667377  0.69643398     0.05300
C312        C  0.40811449  0.37783104  0.70389955    -0.03260
Br313      Br  0.44885175  0.38571986  0.75061498    -0.02950
H314        H  0.43800739  0.40878534  0.68327596     0.09210
H315        H  0.32364846  0.33518624  0.65489229     0.07230
Br316      Br  0.31330148  0.35711499  0.58623342    -0.03380
C317        C  0.23740093  0.50435121  0.51627137    -0.10010
C318        C  0.21882690  0.01935940  0.98230129     0.06180
C319        C  0.23107877  0.01016750  0.95745743    -0.03780
C320        C  0.26196564  0.48690939  0.96702592    -0.08230
C321        C  0.28052630  0.47185789  0.50101857     0.05300
C322        C  0.26825144  0.48113044  0.52583823    -0.03260
Br323      Br  0.29360802  0.46345560  0.57343322    -0.02950
H324        H  0.22720524  0.51006448  0.53517241     0.09210
H325        H  0.27230531  0.48135035  0.94820492     0.07230
Br326      Br  0.20597125  0.02845672  0.91009294    -0.03380
C327        C  0.51105469  0.46264872  0.01206097    -0.10010
C328        C  0.49348295  0.48510042  0.52568002     0.06180
C329        C  0.48776410  0.02044717  0.51482051    -0.03780
C330        C  0.99846907  0.03238218  0.98999361    -0.08230
C331        C  0.01527508  0.00975310  0.97572004     0.05300
C332        C  0.02279342  0.47472714  0.98802734    -0.03260
Br333      Br  0.05081574  0.44193164  0.97535635    -0.02950
H334        H  0.51452520  0.43520122  0.01931899     0.09210
H335        H  0.99513767  0.05987028  0.98289809     0.07230
Br336      Br  0.46504448  0.05388941  0.53229283    -0.03380
C337        C  0.01220193  0.40948406  0.84109559    -0.10010
C338        C  0.47811853  0.40829544  0.84424329     0.06180
C339        C  0.47387805  0.43202603  0.86719282    -0.03780
C340        C  0.00352827  0.45518378  0.88694237    -0.08230
C341        C  0.03769452  0.45602427  0.88432663     0.05300
C342        C  0.04145382  0.43355879  0.86034849    -0.03260
Br343      Br  0.08645176  0.43407611  0.85415205    -0.02950
H344        H  0.01653626  0.39112791  0.82412282     0.09210
H345        H  0.99938533  0.47259564  0.90444987     0.07230
Br346      Br  0.42995095  0.43309237  0.87520839    -0.03380
C347        C  0.45098892  0.17380555  0.84922381    -0.10010
C348        C  0.46278642  0.20844400  0.85733314     0.06180
C349        C  0.50114836  0.21552075  0.88331610    -0.03780
C350        C  0.02710048  0.18808705  0.89954245    -0.08230
C351        C  0.01544720  0.15336398  0.89139638     0.05300
C352        C  0.47652634  0.14628835  0.86639865    -0.03260
Br353      Br  0.45613707  0.09994400  0.85245116    -0.02950
H354        H  0.42180329  0.16813331  0.82926087     0.09210
H355        H  0.05657648  0.19394533  0.91867096     0.07230
Br356      Br  0.02110000  0.26201109  0.89666720    -0.03380
C357        C  0.08625740  0.11752694  0.78083906    -0.10010
C358        C  0.12185743  0.13366338  0.79033102     0.06180
C359        C  0.15015759  0.13311262  0.82593513    -0.03780
C360        C  0.14253275  0.11683458  0.85128880    -0.08230
C361        C  0.10666668  0.10088240  0.84208594     0.05300
C362        C  0.07834008  0.10145534  0.80612248    -0.03260
Br363      Br  0.02881873  0.08003869  0.78920464    -0.02950
H364        H  0.06426671  0.11741571  0.75330659     0.09210
H365        H  0.16503607  0.11695974  0.87857599     0.07230
Br366      Br  0.20033053  0.15212764  0.84085516    -0.03380
C367        C  0.14117024  0.11721639  0.60189122    -0.10010
C368        C  0.10654973  0.13582649  0.59239473     0.06180
C369        C  0.07938213  0.13785972  0.55614766    -0.03780
C370        C  0.08750596  0.12236581  0.53076171    -0.08230
C371        C  0.12211167  0.10403501  0.54035936     0.05300
C372        C  0.14889646  0.10124166  0.57640928    -0.03260
Br373      Br  0.19715982  0.07764639  0.59196059    -0.02950
H374        H  0.16250237  0.11475544  0.62949227     0.09210
H375        H  0.06638418  0.12464788  0.50303905     0.07230
Br376      Br  0.03132526  0.16232946  0.53910965    -0.03380
C377        C  0.47823385  0.09482320  0.61931466    -0.10010
C378        C  0.01607382  0.08450392  0.64378879     0.06180
C379        C  0.02392254  0.04891232  0.65208990    -0.03780
C380        C  0.49440623  0.02447407  0.63542022    -0.08230
C381        C  0.45706966  0.03482951  0.60996873     0.05300
C382        C  0.44897983  0.07039233  0.60237272    -0.03260
Br383      Br  0.39872859  0.08667697  0.56884445    -0.02950
H384        H  0.47142244  0.12217198  0.61259203     0.09210
H385        H  0.50114368  0.99698298  0.64127263     0.07230
Br386      Br  0.07376663  0.03241682  0.68624375    -0.03380
C387        C  0.47178261  0.30426670  0.59153225    -0.10010
C388        C  0.48502392  0.33875047  0.59786974     0.06180
C389        C  0.02508539  0.34460694  0.62023970    -0.03780
C390        C  0.04983710  0.31646037  0.63722132    -0.08230
C391        C  0.03628824  0.28220187  0.63115015     0.05300
C392        C  0.99694953  0.27615324  0.60723447    -0.03260
Br393      Br  0.47483874  0.23024239  0.59576307    -0.02950
H394        H  0.44159397  0.29905952  0.57423600     0.09210
H395        H  0.07993431  0.32134343  0.65519560     0.07230
Br396      Br  0.04896515  0.38992972  0.63026133    -0.03380
C397        C  0.23129179  0.22748954  0.70963125    -0.10010
C398        C  0.21759467  0.22155985  0.73399538     0.06180
C399        C  0.23599761  0.23846997  0.76717769    -0.03780
C400        C  0.26802777  0.25993383  0.77590743    -0.08230
C401        C  0.28178606  0.26573628  0.75162209     0.05300
C402        C  0.26320289  0.24917909  0.71828947    -0.03260
Br403      Br  0.28028429  0.25605234  0.68361135    -0.02950
H404        H  0.21648350  0.21603962  0.68345358     0.09210
H405        H  0.28264521  0.27163718  0.80198035     0.07230
Br406      Br  0.21790729  0.23342286  0.80129483    -0.03380
C407        C  0.48019465  0.22652942  0.75883736    -0.10010
C408        C  0.49068488  0.26138333  0.76928537     0.06180
C409        C  0.01232357  0.27962345  0.75645855    -0.03780
C410        C  0.02259772  0.26320961  0.73304375    -0.08230
C411        C  0.01168854  0.22853253  0.72222380     0.05300
C412        C  0.49100464  0.20992616  0.73584646    -0.03260
Br413      Br  0.47741564  0.16188137  0.72383157    -0.02950
H414        H  0.46237503  0.21256587  0.76763512     0.09210
H415        H  0.04059928  0.27709144  0.72439435     0.07230
Br416      Br  0.02910326  0.32654626  0.77099876    -0.03380
O417        O  0.11974983  0.62936981  0.23504057    -0.86210
O418        O  0.07993550  0.60968455  0.16619077    -0.83250
C419        C  0.04504722  0.61240525  0.15999757     0.97260
O420        O  0.03263115  0.64122361  0.16375913    -0.83290
O421        O  0.02290059  0.70939446  0.17441130    -0.85930
C422        C  0.03312878  0.71016811  0.20733219     1.01780
O423        O  0.06592200  0.70033963  0.22918125    -0.78690
O424        O  0.13853984  0.67972686  0.26127068    -0.78880
C425        C  0.12831027  0.64826181  0.26153484     1.01730
O426        O  0.17426985  0.67228909  0.22152902    -0.86200
O427        O  0.12892109  0.65542985  0.15113716    -0.83270
C428        C  0.10005672  0.65121794  0.12128450     0.97280
O429        O  0.06640748  0.65701808  0.11759975    -0.83290
O430        O  0.06271246  0.72646002  0.13436412    -0.85900
C431        C  0.06208240  0.75300792  0.15118475     1.01750
O432        O  0.07736181  0.75178709  0.18493595    -0.78720
O433        O  0.15175967  0.72611435  0.21366150    -0.78870
C434        C  0.17936180  0.70540058  0.22182077     1.01710
Cr435      Cr  0.12434823  0.64406727  0.19350624     1.93740
Cr436      Cr  0.04909610  0.68316872  0.14969078     1.93210
Cr437      Cr  0.10795935  0.71268519  0.22007059     1.39100
O438        O  0.09431666  0.68040889  0.18728898    -1.23960
O439        O  0.14087052  0.55909923  0.01135074    -0.86210
O440        O  0.07014248  0.53504417  0.48152364    -0.83250
C441        C  0.03711339  0.52580726  0.45996525     0.97260
O442        O  0.02544822  0.52813352  0.42671283    -0.83410
O443        O  0.03215286  0.59625158  0.41289282    -0.85930
C444        C  0.04392875  0.62492721  0.40809347     1.01780
O445        O  0.07896625  0.62794854  0.41499272    -0.78690
O446        O  0.11905195  0.60902016  0.48455770    -0.78880
C447        C  0.12885751  0.59006380  0.01138226     1.01730
O448        O  0.15368603  0.51387369  0.46206020    -0.86200
O449        O  0.08124715  0.98604378  0.43675299    -0.83270
C450        C  0.06531668  0.98421837  0.40315746     0.97280
O451        O  0.06490124  0.51058360  0.38565414    -0.83290
O452        O  0.06666560  0.57969827  0.36747707    -0.85900
C453        C  0.10021159  0.58598421  0.37119137     1.01750
O454        O  0.12905234  0.58279652  0.40125526    -0.78720
O455        O  0.17497407  0.56781495  0.47177698    -0.78870
C456        C  0.18070547  0.53502902  0.47069068     1.01710
Cr457      Cr  0.11114060  0.52537628  0.47074761     1.93740
Cr458      Cr  0.05011911  0.55397511  0.40034113     1.93210
Cr459      Cr  0.12414462  0.59461214  0.44322357     1.39100
O460        O  0.09523607  0.55780148  0.43778413    -1.23960
O461        O  0.36216996  0.80916079  0.22585411    -0.86210
O462        O  0.43567033  0.78989573  0.26018852    -0.83250
C463        C  0.46822571  0.78020039  0.28289475     0.97260
O464        O  0.47730063  0.78130975  0.31555654    -0.83290
O465        O  0.46637749  0.85001304  0.32660849    -0.85930
C466        C  0.45167559  0.87835441  0.32871101     1.01780
O467        O  0.41614199  0.87958764  0.32068254    -0.78690
O468        O  0.37765135  0.85994342  0.25180410    -0.78880
C469        C  0.37087151  0.84109529  0.22565464     1.01730
O470        O  0.34781991  0.76220683  0.27209357    -0.86200
O471        O  0.42279376  0.73811342  0.30301831    -0.83270
C472        C  0.43671566  0.73706076  0.33660587     0.97280
O473        O  0.43466836  0.76349143  0.35283295    -0.83290
O474        O  0.43019015  0.83258754  0.36942238    -0.85900
C475        C  0.39620130  0.83820289  0.36473331     1.01750
O476        O  0.36792218  0.83233793  0.33501506    -0.78720
O477        O  0.32413058  0.81553264  0.26444701    -0.78870
C478        C  0.31973671  0.78237250  0.26379611     1.01710
Cr479      Cr  0.39249624  0.77675738  0.26746377     1.93740
Cr480      Cr  0.44914021  0.80702804  0.33868755     1.93210
Cr481      Cr  0.37304019  0.84447976  0.29306685     1.39100
O482        O  0.40453055  0.80920693  0.29998211    -1.23960
O483        O  0.38473642  0.88446617  0.50352051    -0.86210
O484        O  0.42103760  0.86422182  0.07260528    -0.83250
C485        C  0.45686267  0.86796046  0.08236435     0.97260
O486        O  0.46938359  0.89751771  0.08087727    -0.83290
O487        O  0.47628458  0.96697495  0.07031614    -0.85930
C488        C  0.46851367  0.96895238  0.03793269     1.01780
O489        O  0.43670743  0.95923352  0.01399138    -0.78690
O490        O  0.36550644  0.93500789  0.47715816    -0.78880
C491        C  0.37679730  0.90375678  0.47732143     1.01730
O492        O  0.32541151  0.92401243  0.01242539    -0.86200
O493        O  0.36635540  0.90733106  0.08276447    -0.83270
C494        C  0.39344444  0.90354340  0.11352273     0.97280
O495        O  0.42776407  0.91073626  0.12007961    -0.83290
O496        O  0.42850877  0.98018403  0.10407882    -0.85900
C497        C  0.43017377  0.50728719  0.08852032     1.01750
O498        O  0.41766336  0.50674131  0.05517392    -0.78720
O499        O  0.34575164  0.97828983  0.02287035    -0.78870
C500        C  0.31898774  0.95671325  0.01313898     1.01710
Cr501      Cr  0.37589544  0.89740307  0.04301030     1.93740
Cr502      Cr  0.44771188  0.93856540  0.09142965     1.93210
Cr503      Cr  0.39166744  0.96779720  0.01931209     1.39100
O504        O  0.40492523  0.93466200  0.05141012    -1.23960
C505        C  0.35399403  0.89324182  0.41279326    -0.10010
C506        C  0.38218146  0.88895584  0.44804605     0.06180
C507        C  0.41505343  0.86841863  0.45547057    -0.03780
C508        C  0.41848630  0.85165567  0.42818058    -0.08230
C509        C  0.38985095  0.85486068  0.39292108     0.05300
C510        C  0.35746841  0.87655384  0.38527198    -0.03260
Br511      Br  0.31792011  0.88677228  0.33800890    -0.02950
H512        H  0.32892087  0.90925253  0.40665165     0.09210
H513        H  0.44402179  0.83621266  0.43463557     0.07230
Br514      Br  0.45780308  0.86378207  0.00216695    -0.03380
C515        C  0.41267499  0.89310186  0.17663560    -0.10010
C516        C  0.38546938  0.88826125  0.14125700     0.06180
C517        C  0.35276911  0.86711727  0.13348966    -0.03780
C518        C  0.34854111  0.85133681  0.16107298    -0.08230
C519        C  0.37582020  0.85667208  0.19643349     0.05300
C520        C  0.40811585  0.87782940  0.20389960    -0.03260
Br521      Br  0.44885167  0.88571917  0.25061543    -0.02950
H522        H  0.43800983  0.90878338  0.18327667     0.09210
H523        H  0.32365058  0.83518394  0.15489112     0.07230
Br524      Br  0.31330571  0.85711178  0.08623279    -0.03380
C525        C  0.23740085  0.00434977  0.01627102    -0.10010
C526        C  0.21882592  0.51935999  0.48230133     0.06180
C527        C  0.23107615  0.51016672  0.45745664    -0.03780
C528        C  0.26196846  0.98691032  0.46702709    -0.08230
C529        C  0.28052793  0.97185785  0.00101934     0.05300
C530        C  0.26825178  0.98112937  0.02583833    -0.03260
Br531      Br  0.29360716  0.96345362  0.07343301    -0.02950
H532        H  0.22720411  0.01006222  0.03517145     0.09210
H533        H  0.27230917  0.98135208  0.44820670     0.07230
Br534      Br  0.20596668  0.52845438  0.41009156    -0.03380
C535        C  0.51105463  0.96264764  0.51205709    -0.10010
C536        C  0.49348129  0.98509825  0.02567535     0.06180
C537        C  0.48776710  0.52044924  0.01482517    -0.03780
C538        C  0.99847117  0.53238322  0.48999740    -0.08230
C539        C  0.01527530  0.50975313  0.47572298     0.05300
C540        C  0.02279417  0.97472710  0.48802443    -0.03260
Br541      Br  0.05081906  0.94193283  0.47535520    -0.02950
H542        H  0.51452617  0.93520014  0.51931524     0.09210
H543        H  0.99514067  0.55987132  0.48290190     0.07230
Br544      Br  0.46504981  0.55389264  0.03229806    -0.03380
C545        C  0.01220038  0.90948315  0.34109462    -0.10010
C546        C  0.47811718  0.90829460  0.34424272     0.06180
C547        C  0.47387713  0.93202557  0.36719220    -0.03780
C548        C  0.00352729  0.95518388  0.38694094    -0.08230
C549        C  0.03769324  0.95602444  0.38432459     0.05300
C550        C  0.04145219  0.93355831  0.36034669    -0.03260
Br551      Br  0.08644966  0.93407524  0.35414950    -0.02950
H552        H  0.01653463  0.89112659  0.32412212     0.09210
H553        H  0.99938461  0.97259602  0.40444844     0.07230
Br554      Br  0.42995077  0.93309135  0.37520887    -0.03380
C555        C  0.45098726  0.67380419  0.34922355    -0.10010
C556        C  0.46278436  0.70844275  0.35733296     0.06180
C557        C  0.50114591  0.71551973  0.38331666    -0.03780
C558        C  0.02709807  0.68808619  0.39954368    -0.08230
C559        C  0.01544522  0.65336303  0.39139755     0.05300
C560        C  0.47652471  0.64628715  0.36639903    -0.03260
Br561      Br  0.45613614  0.59994262  0.35245134    -0.02950
H562        H  0.42180194  0.66813175  0.32926004     0.09210
H563        H  0.05657381  0.69394469  0.41867273     0.07230
Br564      Br  0.02109706  0.76201018  0.39666796    -0.03380
C565        C  0.08625568  0.61752616  0.28084104    -0.10010
C566        C  0.12185555  0.63366295  0.29033294     0.06180
C567        C  0.15015574  0.63311248  0.32593701    -0.03780
C568        C  0.14253102  0.61683457  0.35129076    -0.08230
C569        C  0.10666513  0.60088208  0.34208795     0.05300
C570        C  0.07833855  0.60145452  0.30612450    -0.03260
Br571      Br  0.02881769  0.58003688  0.28920673    -0.02950
H572        H  0.06426507  0.61741451  0.25330854     0.09210
H573        H  0.16503435  0.61695998  0.37857794     0.07230
Br574      Br  0.20032865  0.65212743  0.34085686    -0.03380
C575        C  0.14116711  0.61721239  0.10189286    -0.10010
C576        C  0.10654627  0.63582195  0.09239624     0.06180
C577        C  0.07937877  0.63785520  0.05614916    -0.03780
C578        C  0.08750340  0.62236242  0.03076325    -0.08230
C579        C  0.12210974  0.60403265  0.04036105     0.05300
C580        C  0.14889407  0.60123869  0.07641100    -0.03260
Br581      Br  0.19715783  0.57764406  0.09196254    -0.02950
H582        H  0.16249907  0.61475126  0.12949395     0.09210
H583        H  0.06638182  0.62464458  0.00304053     0.07230
Br584      Br  0.03132098  0.66232339  0.03911108    -0.03380
C585        C  0.47823328  0.59482564  0.11930425    -0.10010
C586        C  0.01606780  0.58450553  0.14379138     0.06180
C587        C  0.02390846  0.54891604  0.15210830    -0.03780
C588        C  0.49439092  0.52447912  0.13543753    -0.08230
C589        C  0.45706051  0.53483418  0.10997137     0.05300
C590        C  0.44897729  0.57039632  0.10236319    -0.03260
Br591      Br  0.39873304  0.58668224  0.06881895    -0.02950
H592        H  0.47142815  0.62217355  0.11257166     0.09210
H593        H  0.50112347  0.49698879  0.14130100     0.07230
Br594      Br  0.07374236  0.53242352  0.18628746    -0.03380
C595        C  0.47178239  0.80426278  0.09153075    -0.10010
C596        C  0.48502315  0.83874670  0.09786843     0.06180
C597        C  0.02508433  0.84460375  0.12023921    -0.03780
C598        C  0.04983639  0.81645755  0.13722114    -0.08230
C599        C  0.03628820  0.78219888  0.13114966     0.05300
C600        C  0.99694974  0.77614965  0.10723341    -0.03260
Br601      Br  0.47483981  0.73023844  0.09576187    -0.02950
H602        H  0.44159396  0.79905528  0.07423396     0.09210
H603        H  0.07993333  0.82134106  0.15519603     0.07230
Br604      Br  0.04896311  0.88992698  0.13026207    -0.03380
C605        C  0.23129075  0.72748539  0.20963087    -0.10010
C606        C  0.21759404  0.72155576  0.23399536     0.06180
C607        C  0.23599724  0.73846647  0.26717737    -0.03780
C608        C  0.26802689  0.75993093  0.27590637    -0.08230
C609        C  0.28178467  0.76573347  0.25162063     0.05300
C610        C  0.26320147  0.74917541  0.21828840    -0.03260
Br611      Br  0.28028228  0.75604819  0.18360981    -0.02950
H612        H  0.21648234  0.71603511  0.18345338     0.09210
H613        H  0.28264436  0.77163471  0.30197908     0.07230
Br614      Br  0.21790778  0.73341949  0.30129514    -0.03380
C615        C  0.48019520  0.72652892  0.25883924    -0.10010
C616        C  0.49068502  0.76138295  0.26928682     0.06180
C617        C  0.01232301  0.77962335  0.25645944    -0.03780
C618        C  0.02259665  0.76320972  0.23304426    -0.08230
C619        C  0.01168775  0.72853257  0.22222466     0.05300
C620        C  0.49100473  0.70992586  0.23584799    -0.03260
Br621      Br  0.47741629  0.66188089  0.22383355    -0.02950
H622        H  0.46237610  0.71256516  0.26763746     0.09210
H623        H  0.04059771  0.77709172  0.22439439     0.07230
Br624      Br  0.02910257  0.82654620  0.27099954    -0.03380
O625        O  0.11974983  0.62936981  0.73504056    -0.86210
O626        O  0.07993549  0.60968455  0.66619076    -0.83250
C627        C  0.04504721  0.61240526  0.65999756     0.97260
O628        O  0.03263114  0.64122361  0.66375912    -0.83290
O629        O  0.02290058  0.70939446  0.67441129    -0.85930
C630        C  0.03312878  0.71016811  0.70733218     1.01780
O631        O  0.06592199  0.70033963  0.72918124    -0.78690
O632        O  0.13853984  0.67972686  0.76127068    -0.78880
C633        C  0.12831027  0.64826181  0.76153484     1.01730
O634        O  0.17426985  0.67228910  0.72152902    -0.86200
O635        O  0.12892109  0.65542985  0.65113716    -0.83270
C636        C  0.10005672  0.65121795  0.62128449     0.97280
O637        O  0.06640748  0.65701809  0.61759975    -0.83290
O638        O  0.06271246  0.72646002  0.63436412    -0.85900
C639        C  0.06208239  0.75300792  0.65118475     1.01750
O640        O  0.07736180  0.75178709  0.68493595    -0.78720
O641        O  0.15175966  0.72611435  0.71366150    -0.78870
C642        C  0.17936179  0.70540058  0.72182077     1.01710
Cr643      Cr  0.12434823  0.64406727  0.69350623     1.93740
Cr644      Cr  0.04909609  0.68316872  0.64969077     1.93210
Cr645      Cr  0.10795934  0.71268518  0.72007059     1.39100
O646        O  0.09431666  0.68040889  0.68728898    -1.23960
O647        O  0.14087052  0.55909923  0.51135074    -0.86210
O648        O  0.07014249  0.53504417  0.98152364    -0.83250
C649        C  0.03711339  0.52580726  0.95996526     0.97260
O650        O  0.02544822  0.52813352  0.92671283    -0.83410
O651        O  0.03215286  0.59625159  0.91289283    -0.85930
C652        C  0.04392875  0.62492721  0.90809348     1.01780
O653        O  0.07896625  0.62794855  0.91499272    -0.78690
O654        O  0.11905195  0.60902016  0.98455770    -0.78880
C655        C  0.12885751  0.59006380  0.51138225     1.01730
O656        O  0.15368603  0.51387369  0.96206019    -0.86200
O657        O  0.08124715  0.98604377  0.93675300    -0.83270
C658        C  0.06531668  0.98421837  0.90315746     0.97280
O659        O  0.06490124  0.51058361  0.88565414    -0.83290
O660        O  0.06666560  0.57969828  0.86747707    -0.85900
C661        C  0.10021159  0.58598421  0.87119137     1.01750
O662        O  0.12905234  0.58279653  0.90125526    -0.78720
O663        O  0.17497408  0.56781496  0.97177698    -0.78870
C664        C  0.18070547  0.53502902  0.97069068     1.01710
Cr665      Cr  0.11114060  0.52537628  0.97074761     1.93740
Cr666      Cr  0.05011911  0.55397512  0.90034113     1.93210
Cr667      Cr  0.12414462  0.59461214  0.94322357     1.39100
O668        O  0.09523607  0.55780148  0.93778413    -1.23960
O669        O  0.36216996  0.80916079  0.72585411    -0.86210
O670        O  0.43567033  0.78989574  0.76018852    -0.83250
C671        C  0.46822571  0.78020039  0.78289474     0.97260
O672        O  0.47730063  0.78130976  0.81555653    -0.83290
O673        O  0.46637749  0.85001305  0.82660849    -0.85930
C674        C  0.45167559  0.87835441  0.82871101     1.01780
O675        O  0.41614199  0.87958764  0.82068254    -0.78690
O676        O  0.37765135  0.85994343  0.75180410    -0.78880
C677        C  0.37087151  0.84109529  0.72565464     1.01730
O678        O  0.34781992  0.76220683  0.77209357    -0.86200
O679        O  0.42279376  0.73811343  0.80301831    -0.83270
C680        C  0.43671566  0.73706076  0.83660587     0.97280
O681        O  0.43466836  0.76349144  0.85283295    -0.83290
O682        O  0.43019015  0.83258754  0.86942238    -0.85900
C683        C  0.39620130  0.83820288  0.86473331     1.01750
O684        O  0.36792218  0.83233793  0.83501507    -0.78720
O685        O  0.32413058  0.81553264  0.76444701    -0.78870
C686        C  0.31973671  0.78237250  0.76379611     1.01710
Cr687      Cr  0.39249625  0.77675739  0.76746377     1.93740
Cr688      Cr  0.44914021  0.80702805  0.83868755     1.93210
Cr689      Cr  0.37304019  0.84447976  0.79306685     1.39100
O690        O  0.40453055  0.80920693  0.79998211    -1.23960
O691        O  0.38473642  0.88446617  0.00352051    -0.86210
O692        O  0.42103759  0.86422182  0.57260527    -0.83250
C693        C  0.45686267  0.86796047  0.58236435     0.97260
O694        O  0.46938359  0.89751771  0.58087727    -0.83290
O695        O  0.47628458  0.96697495  0.57031614    -0.85930
C696        C  0.46851366  0.96895238  0.53793269     1.01780
O697        O  0.43670743  0.95923353  0.51399138    -0.78690
O698        O  0.36550644  0.93500788  0.97715816    -0.78880
C699        C  0.37679731  0.90375677  0.97732144     1.01730
O700        O  0.32541151  0.92401243  0.51242538    -0.86200
O701        O  0.36635539  0.90733106  0.58276447    -0.83270
C702        C  0.39344444  0.90354340  0.61352273     0.97280
O703        O  0.42776407  0.91073626  0.62007960    -0.83290
O704        O  0.42850877  0.98018403  0.60407882    -0.85900
C705        C  0.43017377  0.50728719  0.58852032     1.01750
O706        O  0.41766335  0.50674131  0.55517391    -0.78720
O707        O  0.34575163  0.97828983  0.52287035    -0.78870
C708        C  0.31898773  0.95671325  0.51313898     1.01710
Cr709      Cr  0.37589544  0.89740307  0.54301030     1.93740
Cr710      Cr  0.44771188  0.93856540  0.59142965     1.93210
Cr711      Cr  0.39166744  0.96779720  0.51931209     1.39100
O712        O  0.40492522  0.93466200  0.55141012    -1.23960
C713        C  0.35399404  0.89324182  0.91279326    -0.10010
C714        C  0.38218146  0.88895583  0.94804605     0.06180
C715        C  0.41505342  0.86841862  0.95547057    -0.03780
C716        C  0.41848630  0.85165565  0.92818058    -0.08230
C717        C  0.38985095  0.85486067  0.89292108     0.05300
C718        C  0.35746842  0.87655384  0.88527198    -0.03260
Br719      Br  0.31792013  0.88677230  0.83800890    -0.02950
H720        H  0.32892088  0.90925254  0.90665166     0.09210
H721        H  0.44402179  0.83621264  0.93463557     0.07230
Br722      Br  0.45780309  0.86378210  0.50216694    -0.03380
C723        C  0.41267499  0.89310187  0.67663560    -0.10010
C724        C  0.38546937  0.88826125  0.64125699     0.06180
C725        C  0.35276911  0.86711727  0.63348966    -0.03780
C726        C  0.34854111  0.85133681  0.66107298    -0.08230
C727        C  0.37582020  0.85667209  0.69643349     0.05300
C728        C  0.40811584  0.87782941  0.70389959    -0.03260
Br729      Br  0.44885166  0.88571920  0.75061543    -0.02950
H730        H  0.43800982  0.90878339  0.68327667     0.09210
H731        H  0.32365059  0.83518393  0.65489112     0.07230
Br732      Br  0.31330571  0.85711177  0.58623279    -0.03380
C733        C  0.23740086  0.00434978  0.51627102    -0.10010
C734        C  0.21882592  0.51935999  0.98230134     0.06180
C735        C  0.23107617  0.51016675  0.95745665    -0.03780
C736        C  0.26196847  0.98691033  0.96702710    -0.08230
C737        C  0.28052793  0.97185785  0.50101934     0.05300
C738        C  0.26825178  0.98112937  0.52583834    -0.03260
Br739      Br  0.29360717  0.96345363  0.57343302    -0.02950
H740        H  0.22720412  0.01006223  0.53517145     0.09210
H741        H  0.27230918  0.98135209  0.94820670     0.07230
Br742      Br  0.20596673  0.52845445  0.91009158    -0.03380
C743        C  0.51105464  0.96264763  0.01205709    -0.10010
C744        C  0.49348128  0.98509825  0.52567535     0.06180
C745        C  0.48776706  0.52044924  0.51482513    -0.03780
C746        C  0.99847121  0.53238323  0.98999743    -0.08230
C747        C  0.01527530  0.50975314  0.97572299     0.05300
C748        C  0.02279417  0.97472710  0.98802443    -0.03260
Br749      Br  0.05081907  0.94193282  0.97535521    -0.02950
H750        H  0.51452617  0.93520014  0.01931525     0.09210
H751        H  0.99514073  0.55987133  0.98290195     0.07230
Br752      Br  0.46504971  0.55389263  0.53229797    -0.03380
C753        C  0.01220037  0.90948315  0.84109461    -0.10010
C754        C  0.47811718  0.90829460  0.84424272     0.06180
C755        C  0.47387713  0.93202557  0.86719220    -0.03780
C756        C  0.00352729  0.95518387  0.88694095    -0.08230
C757        C  0.03769325  0.95602444  0.88432459     0.05300
C758        C  0.04145219  0.93355832  0.86034668    -0.03260
Br759      Br  0.08644964  0.93407526  0.85414948    -0.02950
H760        H  0.01653461  0.89112660  0.82412210     0.09210
H761        H  0.99938462  0.97259601  0.90444845     0.07230
Br762      Br  0.42995078  0.93309134  0.87520889    -0.03380
C763        C  0.45098726  0.67380419  0.84922356    -0.10010
C764        C  0.46278436  0.70844275  0.85733296     0.06180
C765        C  0.50114592  0.71551973  0.88331666    -0.03780
C766        C  0.02709808  0.68808620  0.89954367    -0.08230
C767        C  0.01544523  0.65336304  0.89139755     0.05300
C768        C  0.47652471  0.64628715  0.86639905    -0.03260
Br769      Br  0.45613613  0.59994263  0.85245137    -0.02950
H770        H  0.42180194  0.66813175  0.82926006     0.09210
H771        H  0.05657382  0.69394469  0.91867272     0.07230
Br772      Br  0.02109707  0.76201019  0.89666794    -0.03380
C773        C  0.08625568  0.61752614  0.78084104    -0.10010
C774        C  0.12185554  0.63366295  0.79033294     0.06180
C775        C  0.15015573  0.63311250  0.82593701    -0.03780
C776        C  0.14253101  0.61683459  0.85129076    -0.08230
C777        C  0.10666513  0.60088208  0.84208795     0.05300
C778        C  0.07833856  0.60145450  0.80612450    -0.03260
Br779      Br  0.02881771  0.58003683  0.78920673    -0.02950
H780        H  0.06426508  0.61741447  0.75330854     0.09210
H781        H  0.16503433  0.61696002  0.87857795     0.07230
Br782      Br  0.20032862  0.65212748  0.84085687    -0.03380
C783        C  0.14116711  0.61721239  0.60189286    -0.10010
C784        C  0.10654627  0.63582196  0.59239624     0.06180
C785        C  0.07937878  0.63785521  0.55614916    -0.03780
C786        C  0.08750341  0.62236242  0.53076324    -0.08230
C787        C  0.12210974  0.60403265  0.54036104     0.05300
C788        C  0.14889407  0.60123869  0.57641100    -0.03260
Br789      Br  0.19715782  0.57764406  0.59196254    -0.02950
H790        H  0.16249907  0.61475127  0.62949394     0.09210
H791        H  0.06638182  0.62464459  0.50304053     0.07230
Br792      Br  0.03132098  0.66232340  0.53911108    -0.03380
C793        C  0.47823327  0.59482564  0.61930423    -0.10010
C794        C  0.01606780  0.58450553  0.64379136     0.06180
C795        C  0.02390846  0.54891604  0.65210828    -0.03780
C796        C  0.49439092  0.52447912  0.63543751    -0.08230
C797        C  0.45706051  0.53483418  0.60997135     0.05300
C798        C  0.44897729  0.57039632  0.60236317    -0.03260
Br799      Br  0.39873303  0.58668224  0.56881894    -0.02950
H800        H  0.47142815  0.62217355  0.61257165     0.09210
H801        H  0.50112347  0.49698879  0.64130099     0.07230
Br802      Br  0.07374236  0.53242351  0.68628745    -0.03380
C803        C  0.47178239  0.80426278  0.59153075    -0.10010
C804        C  0.48502315  0.83874670  0.59786842     0.06180
C805        C  0.02508433  0.84460375  0.62023921    -0.03780
C806        C  0.04983638  0.81645755  0.63722114    -0.08230
C807        C  0.03628820  0.78219889  0.63114966     0.05300
C808        C  0.99694974  0.77614965  0.60723341    -0.03260
Br809      Br  0.47483981  0.73023845  0.59576187    -0.02950
H810        H  0.44159396  0.79905528  0.57423395     0.09210
H811        H  0.07993332  0.82134106  0.65519604     0.07230
Br812      Br  0.04896311  0.88992698  0.63026208    -0.03380
C813        C  0.23129076  0.72748537  0.70963088    -0.10010
C814        C  0.21759404  0.72155576  0.73399536     0.06180
C815        C  0.23599722  0.73846649  0.76717737    -0.03780
C816        C  0.26802688  0.75993095  0.77590636    -0.08230
C817        C  0.28178467  0.76573346  0.75162063     0.05300
C818        C  0.26320148  0.74917539  0.71828840    -0.03260
Br819      Br  0.28028231  0.75604814  0.68360983    -0.02950
H820        H  0.21648237  0.71603508  0.68345339     0.09210
H821        H  0.28264433  0.77163474  0.80197906     0.07230
Br822      Br  0.21790775  0.73341954  0.80129513    -0.03380
C823        C  0.48019522  0.72652892  0.75883925    -0.10010
C824        C  0.49068502  0.76138295  0.76928682     0.06180
C825        C  0.01232298  0.77962336  0.75645941    -0.03780
C826        C  0.02259662  0.76320973  0.73304423    -0.08230
C827        C  0.01168774  0.72853256  0.72222465     0.05300
C828        C  0.49100474  0.70992586  0.73584800    -0.03260
Br829      Br  0.47741632  0.66188087  0.72383359    -0.02950
H830        H  0.46237613  0.71256516  0.76763749     0.09210
H831        H  0.04059767  0.77709173  0.72439435     0.07230
Br832      Br  0.02910253  0.82654622  0.77099949    -0.03380
O833        O  0.61975223  0.12937135  0.23503850    -0.86210
O834        O  0.57994005  0.10968680  0.16618778    -0.83250
C835        C  0.54505170  0.11240553  0.15999455     0.97260
O836        O  0.53263473  0.14122312  0.16375713    -0.83290
O837        O  0.52290129  0.20939396  0.17441034    -0.85930
C838        C  0.53312959  0.21016787  0.20733127     1.01780
O839        O  0.56592297  0.20033974  0.22918026    -0.78690
O840        O  0.63854123  0.17972820  0.26126935    -0.78880
C841        C  0.62831216  0.14826289  0.26153306     1.01730
O842        O  0.67427163  0.17229274  0.22152837    -0.86200
O843        O  0.62892430  0.15543443  0.15113583    -0.83270
C844        C  0.60006004  0.15122237  0.12128303     0.97280
O845        O  0.56641060  0.15702170  0.11759821    -0.83290
O846        O  0.56271203  0.22646295  0.13436322    -0.85900
C847        C  0.56208209  0.25301038  0.15118455     1.01750
O848        O  0.57736174  0.25178885  0.18493573    -0.78720
O849        O  0.65176019  0.22611753  0.21366100    -0.78870
C850        C  0.67936279  0.20540429  0.22182040     1.01710
Cr851      Cr  0.62435111  0.14407030  0.19350456     1.93740
Cr852      Cr  0.54909780  0.18317012  0.14968946     1.93210
Cr853      Cr  0.60796009  0.21268680  0.22006975     1.39100
O854        O  0.59431842  0.18041106  0.18728762    -1.23960
O855        O  0.64087049  0.05909975  0.01134906    -0.86210
O856        O  0.57014195  0.03504552  0.48152101    -0.83250
C857        C  0.53711305  0.02580820  0.45996256     0.97260
O858        O  0.52544822  0.02813440  0.42671019    -0.83410
O859        O  0.53215445  0.09625242  0.41289110    -0.85930
C860        C  0.54393051  0.12492793  0.40809175     1.01780
O861        O  0.57896791  0.12794894  0.41499063    -0.78690
O862        O  0.61905312  0.10902070  0.48455555    -0.78880
C863        C  0.62885842  0.09006479  0.01138036     1.01730
O864        O  0.65368667  0.01387341  0.46205940    -0.86200
O865        O  0.58124744  0.48604320  0.43675533    -0.83270
C866        C  0.56531751  0.48421805  0.40315986     0.97280
O867        O  0.56490063  0.01058371  0.38565149    -0.83290
O868        O  0.56666686  0.07969868  0.36747498    -0.85900
C869        C  0.60021295  0.08598440  0.37118933     1.01750
O870        O  0.62905364  0.08279636  0.40125324    -0.78720
O871        O  0.67497497  0.06781464  0.47177530    -0.78870
C872        C  0.68070630  0.03502857  0.47068986     1.01710
Cr873      Cr  0.61114056  0.02537679  0.47074567     1.93740
Cr874      Cr  0.55011977  0.05397575  0.40033888     1.93210
Cr875      Cr  0.62414583  0.09461215  0.44322155     1.39100
O876        O  0.59523684  0.05780171  0.43778197    -1.23960
O877        O  0.86217017  0.30916223  0.22585518    -0.86210
O878        O  0.93567037  0.28989621  0.26018800    -0.83250
C879        C  0.96822600  0.28020096  0.28289383     0.97260
O880        O  0.97730175  0.28131086  0.31555584    -0.83290
O881        O  0.96637882  0.35001427  0.32660808    -0.85930
C882        C  0.95167710  0.37835547  0.32871126     1.01780
O883        O  0.91614381  0.37958862  0.32068359    -0.78690
O884        O  0.87765216  0.35994486  0.25180529    -0.78880
C885        C  0.87087149  0.34109678  0.22565559     1.01730
O886        O  0.84782123  0.26220872  0.27209568    -0.86200
O887        O  0.92279480  0.23811468  0.30301886    -0.83270
C888        C  0.93671763  0.23706209  0.33660651     0.97280
O889        O  0.93467103  0.26349280  0.35283388    -0.83290
O890        O  0.93019314  0.33258893  0.36942362    -0.85900
C891        C  0.89620444  0.33820426  0.36473506     1.01750
O892        O  0.86792505  0.33233891  0.33501708    -0.78720
O893        O  0.82413230  0.31553466  0.26444886    -0.78870
C894        C  0.81973823  0.28237467  0.26379808     1.01710
Cr895      Cr  0.89249692  0.27675864  0.26746459     1.93740
Cr896      Cr  0.94914227  0.30702932  0.33868787     1.93210
Cr897      Cr  0.87304202  0.34448110  0.29306841     1.39100
O898        O  0.90453217  0.30920824  0.29998296    -1.23960
O899        O  0.88473830  0.38446892  0.50352144    -0.86210
O900        O  0.92103811  0.36422487  0.07260606    -0.83250
C901        C  0.95686342  0.36796445  0.08236657     0.97260
O902        O  0.96938431  0.39752238  0.08088152    -0.83290
O903        O  0.97628292  0.46697998  0.07031965    -0.85930
C904        C  0.96851397  0.46895592  0.03793659     1.01780
O905        O  0.93670833  0.45923674  0.01399456    -0.78690
O906        O  0.86550795  0.43501040  0.47715877    -0.78880
C907        C  0.87679945  0.40375947  0.47732240     1.01730
O908        O  0.82541096  0.42401343  0.01242453    -0.86200
O909        O  0.86635295  0.40733151  0.08276361    -0.83270
C910        C  0.89344140  0.40354518  0.11352240     0.97280
O911        O  0.92776097  0.41073916  0.12008010    -0.83290
O912        O  0.92850202  0.48018677  0.10407847    -0.85900
C913        C  0.93017978  0.00728396  0.08851960     1.01750
O914        O  0.91766616  0.00673816  0.05517280    -0.78720
O915        O  0.84574965  0.47829137  0.02286904    -0.78870
C916        C  0.81898636  0.45671412  0.01313783     1.01710
Cr917      Cr  0.87589524  0.39740495  0.04301034     1.93740
Cr918      Cr  0.94770925  0.43856930  0.09143153     1.93210
Cr919      Cr  0.89166686  0.46779980  0.01931295     1.39100
O920        O  0.90492408  0.43466461  0.05141097    -1.23960
C921        C  0.85399692  0.39324399  0.41279442    -0.10010
C922        C  0.88218427  0.38895854  0.44804730     0.06180
C923        C  0.91505656  0.36842164  0.45547217    -0.03780
C924        C  0.91848978  0.35165840  0.42818239    -0.08230
C925        C  0.88985434  0.35486270  0.39292280     0.05300
C926        C  0.85747156  0.37655567  0.38527341    -0.03260
Br927      Br  0.81792310  0.38677346  0.33801021    -0.02950
H928        H  0.82892352  0.40925445  0.40665252     0.09210
H929        H  0.94402547  0.33621561  0.43463762     0.07230
Br930      Br  0.95780591  0.36378573  0.00216883    -0.03380
C931        C  0.91267257  0.39310393  0.17663523    -0.10010
C932        C  0.88546628  0.38826350  0.14125678     0.06180
C933        C  0.85276605  0.36711972  0.13348997    -0.03780
C934        C  0.84853895  0.35133899  0.16107367    -0.08230
C935        C  0.87581901  0.35667378  0.19643397     0.05300
C936        C  0.90811448  0.37783104  0.20389955    -0.03260
Br937      Br  0.94885175  0.38571987  0.25061497    -0.02950
H938        H  0.93800739  0.40878535  0.18327596     0.09210
H939        H  0.82364846  0.33518624  0.15489229     0.07230
Br940      Br  0.81330148  0.35711499  0.08623342    -0.03380
C941        C  0.73740093  0.50435120  0.01627137    -0.10010
C942        C  0.71882690  0.01935939  0.48230129     0.06180
C943        C  0.73107878  0.01016751  0.45745744    -0.03780
C944        C  0.76196560  0.48690934  0.46702591    -0.08230
C945        C  0.78052630  0.47185790  0.00101856     0.05300
C946        C  0.76825144  0.48113044  0.02583822    -0.03260
Br947      Br  0.79360801  0.46345558  0.07343321    -0.02950
H948        H  0.72720523  0.51006446  0.03517240     0.09210
H949        H  0.77230524  0.48135026  0.44820490     0.07230
Br950      Br  0.70597125  0.02845673  0.41009295    -0.03380
C951        C  0.01105471  0.46264873  0.51206099    -0.10010
C952        C  0.99348297  0.48510041  0.02568003     0.06180
C953        C  0.98776410  0.02044717  0.01482052    -0.03780
C954        C  0.49846907  0.03238219  0.48999360    -0.08230
C955        C  0.51527507  0.00975310  0.47572003     0.05300
C956        C  0.52279345  0.47472715  0.48802737    -0.03260
Br957      Br  0.55081580  0.44193166  0.47535641    -0.02950
H958        H  0.01452524  0.43520123  0.51931903     0.09210
H959        H  0.49513767  0.05987029  0.48289809     0.07230
Br960      Br  0.96504448  0.05388941  0.03229283    -0.03380
C961        C  0.51220192  0.40948407  0.34109558    -0.10010
C962        C  0.97811853  0.40829544  0.34424329     0.06180
C963        C  0.97387807  0.43202601  0.36719285    -0.03780
C964        C  0.50352829  0.45518376  0.38694240    -0.08230
C965        C  0.53769452  0.45602426  0.38432664     0.05300
C966        C  0.54145381  0.43355880  0.36034848    -0.03260
Br967      Br  0.58645172  0.43407614  0.35415201    -0.02950
H968        H  0.51653623  0.39112794  0.32412279     0.09210
H969        H  0.49938536  0.47259560  0.40444992     0.07230
Br970      Br  0.92995099  0.43309233  0.37520845    -0.03380
C971        C  0.95098892  0.17380555  0.34922381    -0.10010
C972        C  0.96278642  0.20844400  0.35733313     0.06180
C973        C  0.00114836  0.21552075  0.38331609    -0.03780
C974        C  0.52710048  0.18808705  0.39954246    -0.08230
C975        C  0.51544721  0.15336398  0.39139638     0.05300
C976        C  0.97652634  0.14628836  0.36639864    -0.03260
Br977      Br  0.95613708  0.09994401  0.35245115    -0.02950
H978        H  0.92180329  0.16813331  0.32926086     0.09210
H979        H  0.55657648  0.19394534  0.41867097     0.07230
Br980      Br  0.52110000  0.26201109  0.39666721    -0.03380
C981        C  0.58625740  0.11752693  0.28083907    -0.10010
C982        C  0.62185744  0.13366338  0.29033102     0.06180
C983        C  0.65015760  0.13311262  0.32593513    -0.03780
C984        C  0.64253276  0.11683459  0.35128881    -0.08230
C985        C  0.60666668  0.10088240  0.34208595     0.05300
C986        C  0.57834009  0.10145534  0.30612248    -0.03260
Br987      Br  0.52881875  0.08003868  0.28920464    -0.02950
H988        H  0.56426672  0.11741570  0.25330659     0.09210
H989        H  0.66503608  0.11695975  0.37857600     0.07230
Br990      Br  0.70033052  0.15212766  0.34085516    -0.03380
C991        C  0.64117025  0.11721639  0.10189122    -0.10010
C992        C  0.60654973  0.13582648  0.09239473     0.06180
C993        C  0.57938213  0.13785971  0.05614766    -0.03780
C994        C  0.58750596  0.12236581  0.03076171    -0.08230
C995        C  0.62211167  0.10403501  0.04035936     0.05300
C996        C  0.64889646  0.10124166  0.07640929    -0.03260
Br997      Br  0.69715983  0.07764640  0.09196059    -0.02950
H998        H  0.66250237  0.11475545  0.12949227     0.09210
H999        H  0.56638418  0.12464787  0.00303905     0.07230
Br1000     Br  0.53132525  0.16232945  0.03910965    -0.03380
C1001       C  0.97823385  0.09482320  0.11931465    -0.10010
C1002       C  0.51607382  0.08450392  0.14378880     0.06180
C1003       C  0.52392254  0.04891232  0.15208991    -0.03780
C1004       C  0.99440623  0.02447407  0.13542022    -0.08230
C1005       C  0.95706966  0.03482951  0.10996873     0.05300
C1006       C  0.94897982  0.07039233  0.10237272    -0.03260
Br1007     Br  0.89872858  0.08667696  0.06884444    -0.02950
H1008       H  0.97142243  0.12217198  0.11259202     0.09210
H1009       H  0.00114368  0.99698298  0.14127263     0.07230
Br1010     Br  0.57376663  0.03241682  0.18624376    -0.03380
C1011       C  0.97178262  0.30426670  0.09153224    -0.10010
C1012       C  0.98502392  0.33875047  0.09786975     0.06180
C1013       C  0.52508540  0.34460694  0.12023970    -0.03780
C1014       C  0.54983711  0.31646037  0.13722132    -0.08230
C1015       C  0.53628824  0.28220187  0.13115015     0.05300
C1016       C  0.49694954  0.27615324  0.10723447    -0.03260
Br1017     Br  0.97483875  0.23024239  0.09576304    -0.02950
H1018       H  0.94159399  0.29905953  0.07423598     0.09210
H1019       H  0.57993432  0.32134343  0.15519559     0.07230
Br1020     Br  0.54896516  0.38992971  0.13026132    -0.03380
C1021       C  0.73129181  0.22748952  0.20963126    -0.10010
C1022       C  0.71759467  0.22155984  0.23399539     0.06180
C1023       C  0.73599760  0.23846999  0.26717768    -0.03780
C1024       C  0.76802776  0.25993385  0.27590742    -0.08230
C1025       C  0.78178606  0.26573628  0.25162209     0.05300
C1026       C  0.76320290  0.24917906  0.21828947    -0.03260
Br1027     Br  0.78028433  0.25605229  0.18361137    -0.02950
H1028       H  0.71648353  0.21603958  0.18345360     0.09210
H1029       H  0.78264518  0.27163721  0.30198033     0.07230
Br1030     Br  0.71790727  0.23342291  0.30129481    -0.03380
C1031       C  0.98019465  0.22652943  0.25883735    -0.10010
C1032       C  0.99068488  0.26138334  0.26928536     0.06180
C1033       C  0.51232356  0.27962346  0.25645854    -0.03780
C1034       C  0.52259771  0.26320961  0.23304374    -0.08230
C1035       C  0.51168854  0.22853253  0.22222381     0.05300
C1036       C  0.99100464  0.20992617  0.23584645    -0.03260
Br1037     Br  0.97741564  0.16188138  0.22383156    -0.02950
H1038       H  0.96237502  0.21256587  0.26763512     0.09210
H1039       H  0.54059925  0.27709145  0.22439433     0.07230
Br1040     Br  0.52910323  0.32654628  0.27099873    -0.03380
O1041       O  0.61975223  0.12937135  0.73503850    -0.86210
O1042       O  0.57994005  0.10968680  0.66618778    -0.83250
C1043       C  0.54505170  0.11240553  0.65999455     0.97260
O1044       O  0.53263473  0.14122312  0.66375713    -0.83290
O1045       O  0.52290129  0.20939396  0.67441034    -0.85930
C1046       C  0.53312959  0.21016787  0.70733127     1.01780
O1047       O  0.56592298  0.20033974  0.72918026    -0.78690
O1048       O  0.63854124  0.17972820  0.76126935    -0.78880
C1049       C  0.62831217  0.14826289  0.76153306     1.01730
O1050       O  0.67427163  0.17229275  0.72152837    -0.86200
O1051       O  0.62892430  0.15543443  0.65113583    -0.83270
C1052       C  0.60006004  0.15122237  0.62128303     0.97280
O1053       O  0.56641060  0.15702170  0.61759821    -0.83290
O1054       O  0.56271202  0.22646295  0.63436322    -0.85900
C1055       C  0.56208209  0.25301038  0.65118455     1.01750
O1056       O  0.57736174  0.25178885  0.68493573    -0.78720
O1057       O  0.65176019  0.22611753  0.71366100    -0.78870
C1058       C  0.67936279  0.20540429  0.72182040     1.01710
Cr1059     Cr  0.62435111  0.14407031  0.69350456     1.93740
Cr1060     Cr  0.54909780  0.18317012  0.64968947     1.93210
Cr1061     Cr  0.60796009  0.21268680  0.72006975     1.39100
O1062       O  0.59431843  0.18041106  0.68728762    -1.23960
O1063       O  0.64087049  0.05909975  0.51134906    -0.86210
O1064       O  0.57014196  0.03504551  0.98152101    -0.83250
C1065       C  0.53711306  0.02580819  0.95996256     0.97260
O1066       O  0.52544822  0.02813440  0.92671019    -0.83410
O1067       O  0.53215445  0.09625242  0.91289110    -0.85930
C1068       C  0.54393051  0.12492793  0.90809175     1.01780
O1069       O  0.57896791  0.12794894  0.91499063    -0.78690
O1070       O  0.61905312  0.10902070  0.98455555    -0.78880
C1071       C  0.62885842  0.09006479  0.51138036     1.01730
O1072       O  0.65368667  0.01387341  0.96205940    -0.86200
O1073       O  0.58124744  0.48604320  0.93675532    -0.83270
C1074       C  0.56531750  0.48421805  0.90315985     0.97280
O1075       O  0.56490063  0.01058371  0.88565149    -0.83290
O1076       O  0.56666686  0.07969868  0.86747498    -0.85900
C1077       C  0.60021295  0.08598440  0.87118933     1.01750
O1078       O  0.62905364  0.08279636  0.90125324    -0.78720
O1079       O  0.67497497  0.06781464  0.97177530    -0.78870
C1080       C  0.68070630  0.03502857  0.97068986     1.01710
Cr1081     Cr  0.61114056  0.02537679  0.97074567     1.93740
Cr1082     Cr  0.55011977  0.05397575  0.90033889     1.93210
Cr1083     Cr  0.62414583  0.09461215  0.94322154     1.39100
O1084       O  0.59523685  0.05780171  0.93778197    -1.23960
O1085       O  0.86217017  0.30916222  0.72585518    -0.86210
O1086       O  0.93567037  0.28989620  0.76018801    -0.83250
C1087       C  0.96822600  0.28020095  0.78289383     0.97260
O1088       O  0.97730175  0.28131085  0.81555584    -0.83290
O1089       O  0.96637883  0.35001427  0.82660808    -0.85930
C1090       C  0.95167710  0.37835547  0.82871125     1.01780
O1091       O  0.91614381  0.37958862  0.82068359    -0.78690
O1092       O  0.87765216  0.35994485  0.75180529    -0.78880
C1093       C  0.87087149  0.34109678  0.72565559     1.01730
O1094       O  0.84782123  0.26220872  0.77209569    -0.86200
O1095       O  0.92279479  0.23811467  0.80301886    -0.83270
C1096       C  0.93671763  0.23706209  0.83660651     0.97280
O1097       O  0.93467103  0.26349280  0.85283389    -0.83290
O1098       O  0.93019315  0.33258893  0.86942362    -0.85900
C1099       C  0.89620445  0.33820426  0.86473506     1.01750
O1100       O  0.86792505  0.33233891  0.83501709    -0.78720
O1101       O  0.82413231  0.31553466  0.76444886    -0.78870
C1102       C  0.81973823  0.28237467  0.76379808     1.01710
Cr1103     Cr  0.89249693  0.27675864  0.76746459     1.93740
Cr1104     Cr  0.94914228  0.30702932  0.83868787     1.93210
Cr1105     Cr  0.87304203  0.34448110  0.79306841     1.39100
O1106       O  0.90453217  0.30920824  0.79998296    -1.23960
O1107       O  0.88473831  0.38446892  0.00352144    -0.86210
O1108       O  0.92103810  0.36422487  0.57260606    -0.83250
C1109       C  0.95686341  0.36796445  0.58236656     0.97260
O1110       O  0.96938431  0.39752237  0.58088151    -0.83290
O1111       O  0.97628291  0.46697998  0.57031964    -0.85930
C1112       C  0.96851396  0.46895592  0.53793658     1.01780
O1113       O  0.93670831  0.45923674  0.51399455    -0.78690
O1114       O  0.86550796  0.43501040  0.97715878    -0.78880
C1115       C  0.87679946  0.40375948  0.97732240     1.01730
O1116       O  0.82541095  0.42401343  0.51242453    -0.86200
O1117       O  0.86635295  0.40733151  0.58276361    -0.83270
C1118       C  0.89344140  0.40354519  0.61352239     0.97280
O1119       O  0.92776096  0.41073916  0.62008009    -0.83290
O1120       O  0.92850201  0.48018677  0.60407847    -0.85900
C1121       C  0.93017977  0.00728396  0.58851960     1.01750
O1122       O  0.91766616  0.00673816  0.55517280    -0.78720
O1123       O  0.84574964  0.47829136  0.52286904    -0.78870
C1124       C  0.81898635  0.45671412  0.51313783     1.01710
Cr1125     Cr  0.87589524  0.39740495  0.54301033     1.93740
Cr1126     Cr  0.94770924  0.43856930  0.59143152     1.93210
Cr1127     Cr  0.89166685  0.46779979  0.51931295     1.39100
O1128       O  0.90492407  0.43466461  0.55141096    -1.23960
C1129       C  0.85399694  0.39324400  0.91279442    -0.10010
C1130       C  0.88218428  0.38895855  0.94804730     0.06180
C1131       C  0.91505656  0.36842164  0.95547217    -0.03780
C1132       C  0.91848978  0.35165840  0.92818239    -0.08230
C1133       C  0.88985435  0.35486270  0.89292280     0.05300
C1134       C  0.85747157  0.37655569  0.88527341    -0.03260
Br1135     Br  0.81792311  0.38677348  0.83801021    -0.02950
H1136       H  0.82892354  0.40925447  0.90665253     0.09210
H1137       H  0.94402547  0.33621560  0.93463762     0.07230
Br1138     Br  0.95780591  0.36378574  0.50216883    -0.03380
C1139       C  0.91267257  0.39310392  0.67663523    -0.10010
C1140       C  0.88546628  0.38826350  0.64125678     0.06180
C1141       C  0.85276604  0.36711973  0.63348997    -0.03780
C1142       C  0.84853895  0.35133899  0.66107367    -0.08230
C1143       C  0.87581901  0.35667377  0.69643398     0.05300
C1144       C  0.90811449  0.37783103  0.70389955    -0.03260
Br1145     Br  0.94885176  0.38571985  0.75061497    -0.02950
H1146       H  0.93800739  0.40878533  0.68327596     0.09210
H1147       H  0.82364845  0.33518625  0.65489229     0.07230
Br1148     Br  0.81330146  0.35711501  0.58623342    -0.03380
C1149       C  0.73740094  0.50435123  0.51627138    -0.10010
C1150       C  0.71882690  0.01935939  0.98230129     0.06180
C1151       C  0.73107878  0.01016751  0.95745744    -0.03780
C1152       C  0.76196562  0.48690937  0.96702591    -0.08230
C1153       C  0.78052630  0.47185789  0.50101857     0.05300
C1154       C  0.76825145  0.48113047  0.52583823    -0.03260
Br1155     Br  0.79360804  0.46345564  0.57343323    -0.02950
H1156       H  0.72720526  0.51006452  0.53517241     0.09210
H1157       H  0.77230528  0.48135032  0.94820491     0.07230
Br1158     Br  0.70597126  0.02845674  0.91009295    -0.03380
C1159       C  0.01105469  0.46264872  0.01206097    -0.10010
C1160       C  0.99348295  0.48510041  0.52568001     0.06180
C1161       C  0.98776409  0.02044717  0.51482051    -0.03780
C1162       C  0.49846907  0.03238218  0.98999361    -0.08230
C1163       C  0.51527508  0.00975310  0.97572004     0.05300
C1164       C  0.52279342  0.47472714  0.98802734    -0.03260
Br1165     Br  0.55081573  0.44193164  0.97535634    -0.02950
H1166       H  0.01452520  0.43520122  0.01931899     0.09210
H1167       H  0.49513767  0.05987028  0.98289809     0.07230
Br1168     Br  0.96504447  0.05388941  0.53229282    -0.03380
C1169       C  0.51220193  0.40948406  0.84109560    -0.10010
C1170       C  0.97811853  0.40829544  0.84424329     0.06180
C1171       C  0.97387806  0.43202603  0.86719282    -0.03780
C1172       C  0.50352826  0.45518378  0.88694237    -0.08230
C1173       C  0.53769451  0.45602427  0.88432663     0.05300
C1174       C  0.54145382  0.43355879  0.86034849    -0.03260
Br1175     Br  0.58645176  0.43407610  0.85415206    -0.02950
H1176       H  0.51653626  0.39112791  0.82412282     0.09210
H1177       H  0.49938532  0.47259564  0.90444986     0.07230
Br1178     Br  0.92995096  0.43309237  0.87520839    -0.03380
C1179       C  0.95098892  0.17380555  0.84922382    -0.10010
C1180       C  0.96278642  0.20844400  0.85733313     0.06180
C1181       C  0.00114836  0.21552075  0.88331609    -0.03780
C1182       C  0.52710048  0.18808705  0.89954245    -0.08230
C1183       C  0.51544720  0.15336398  0.89139638     0.05300
C1184       C  0.97652633  0.14628836  0.86639865    -0.03260
Br1185     Br  0.95613707  0.09994400  0.85245117    -0.02950
H1186       H  0.92180329  0.16813331  0.82926087     0.09210
H1187       H  0.55657648  0.19394533  0.91867096     0.07230
Br1188     Br  0.52110000  0.26201109  0.89666720    -0.03380
C1189       C  0.58625740  0.11752694  0.78083907    -0.10010
C1190       C  0.62185744  0.13366338  0.79033102     0.06180
C1191       C  0.65015760  0.13311262  0.82593513    -0.03780
C1192       C  0.64253276  0.11683458  0.85128881    -0.08230
C1193       C  0.60666668  0.10088240  0.84208595     0.05300
C1194       C  0.57834008  0.10145534  0.80612248    -0.03260
Br1195     Br  0.52881874  0.08003869  0.78920464    -0.02950
H1196       H  0.56426672  0.11741571  0.75330660     0.09210
H1197       H  0.66503608  0.11695974  0.87857599     0.07230
Br1198     Br  0.70033053  0.15212764  0.84085516    -0.03380
C1199       C  0.64117025  0.11721638  0.60189122    -0.10010
C1200       C  0.60654973  0.13582649  0.59239473     0.06180
C1201       C  0.57938214  0.13785971  0.55614766    -0.03780
C1202       C  0.58750596  0.12236581  0.53076171    -0.08230
C1203       C  0.62211167  0.10403501  0.54035936     0.05300
C1204       C  0.64889646  0.10124166  0.57640929    -0.03260
Br1205     Br  0.69715982  0.07764639  0.59196059    -0.02950
H1206       H  0.66250237  0.11475544  0.62949227     0.09210
H1207       H  0.56638418  0.12464788  0.50303905     0.07230
Br1208     Br  0.53132526  0.16232946  0.53910965    -0.03380
C1209       C  0.97823385  0.09482320  0.61931466    -0.10010
C1210       C  0.51607382  0.08450392  0.64378880     0.06180
C1211       C  0.52392254  0.04891232  0.65208990    -0.03780
C1212       C  0.99440623  0.02447407  0.63542021    -0.08230
C1213       C  0.95706966  0.03482951  0.60996873     0.05300
C1214       C  0.94897983  0.07039233  0.60237272    -0.03260
Br1215     Br  0.89872859  0.08667696  0.56884445    -0.02950
H1216       H  0.97142243  0.12217198  0.61259203     0.09210
H1217       H  0.00114368  0.99698297  0.64127262     0.07230
Br1218     Br  0.57376663  0.03241682  0.68624376    -0.03380
C1219       C  0.97178261  0.30426670  0.59153225    -0.10010
C1220       C  0.98502391  0.33875047  0.59786974     0.06180
C1221       C  0.52508539  0.34460694  0.62023970    -0.03780
C1222       C  0.54983710  0.31646037  0.63722132    -0.08230
C1223       C  0.53628824  0.28220187  0.63115015     0.05300
C1224       C  0.49694954  0.27615323  0.60723447    -0.03260
Br1225     Br  0.97483873  0.23024239  0.59576306    -0.02950
H1226       H  0.94159397  0.29905952  0.57423600     0.09210
H1227       H  0.57993431  0.32134343  0.65519559     0.07230
Br1228     Br  0.54896515  0.38992971  0.63026132    -0.03380
C1229       C  0.73129179  0.22748954  0.70963125    -0.10010
C1230       C  0.71759467  0.22155985  0.73399538     0.06180
C1231       C  0.73599762  0.23846997  0.76717769    -0.03780
C1232       C  0.76802777  0.25993383  0.77590743    -0.08230
C1233       C  0.78178606  0.26573628  0.75162209     0.05300
C1234       C  0.76320289  0.24917909  0.71828946    -0.03260
Br1235     Br  0.78028429  0.25605235  0.68361135    -0.02950
H1236       H  0.71648350  0.21603963  0.68345358     0.09210
H1237       H  0.78264521  0.27163717  0.80198035     0.07230
Br1238     Br  0.71790730  0.23342286  0.80129483    -0.03380
C1239       C  0.98019464  0.22652942  0.75883736    -0.10010
C1240       C  0.99068488  0.26138333  0.76928536     0.06180
C1241       C  0.51232357  0.27962345  0.75645855    -0.03780
C1242       C  0.52259772  0.26320961  0.73304375    -0.08230
C1243       C  0.51168854  0.22853253  0.72222381     0.05300
C1244       C  0.99100464  0.20992616  0.73584646    -0.03260
Br1245     Br  0.97741563  0.16188137  0.72383156    -0.02950
H1246       H  0.96237502  0.21256587  0.76763512     0.09210
H1247       H  0.54059927  0.27709144  0.72439435     0.07230
Br1248     Br  0.52910325  0.32654627  0.77099875    -0.03380
O1249       O  0.61974983  0.62936981  0.23504057    -0.86210
O1250       O  0.57993549  0.60968456  0.16619077    -0.83250
C1251       C  0.54504721  0.61240526  0.15999757     0.97260
O1252       O  0.53263114  0.64122361  0.16375913    -0.83290
O1253       O  0.52290059  0.70939447  0.17441130    -0.85930
C1254       C  0.53312878  0.71016811  0.20733219     1.01780
O1255       O  0.56592200  0.70033964  0.22918125    -0.78690
O1256       O  0.63853984  0.67972687  0.26127068    -0.78880
C1257       C  0.62831027  0.64826181  0.26153484     1.01730
O1258       O  0.67426985  0.67228909  0.22152902    -0.86200
O1259       O  0.62892109  0.65542985  0.15113716    -0.83270
C1260       C  0.60005671  0.65121795  0.12128450     0.97280
O1261       O  0.56640748  0.65701808  0.11759975    -0.83290
O1262       O  0.56271246  0.72646002  0.13436412    -0.85900
C1263       C  0.56208240  0.75300792  0.15118475     1.01750
O1264       O  0.57736181  0.75178709  0.18493595    -0.78720
O1265       O  0.65175967  0.72611435  0.21366150    -0.78870
C1266       C  0.67936180  0.70540058  0.22182078     1.01710
Cr1267     Cr  0.62434823  0.64406727  0.19350624     1.93740
Cr1268     Cr  0.54909610  0.68316872  0.14969078     1.93210
Cr1269     Cr  0.60795935  0.71268519  0.22007059     1.39100
O1270       O  0.59431666  0.68040890  0.18728898    -1.23960
O1271       O  0.64087052  0.55909923  0.01135074    -0.86210
O1272       O  0.57014248  0.53504417  0.48152364    -0.83250
C1273       C  0.53711339  0.52580726  0.45996526     0.97260
O1274       O  0.52544822  0.52813352  0.42671283    -0.83410
O1275       O  0.53215286  0.59625158  0.41289282    -0.85930
C1276       C  0.54392875  0.62492721  0.40809348     1.01780
O1277       O  0.57896625  0.62794855  0.41499272    -0.78690
O1278       O  0.61905195  0.60902016  0.48455770    -0.78880
C1279       C  0.62885751  0.59006380  0.01138226     1.01730
O1280       O  0.65368603  0.51387370  0.46206019    -0.86200
O1281       O  0.58124715  0.98604377  0.43675299    -0.83270
C1282       C  0.56531668  0.98421837  0.40315746     0.97280
O1283       O  0.56490124  0.51058360  0.38565414    -0.83290
O1284       O  0.56666560  0.57969827  0.36747707    -0.85900
C1285       C  0.60021159  0.58598421  0.37119137     1.01750
O1286       O  0.62905234  0.58279653  0.40125526    -0.78720
O1287       O  0.67497407  0.56781496  0.47177698    -0.78870
C1288       C  0.68070547  0.53502902  0.47069068     1.01710
Cr1289     Cr  0.61114060  0.52537628  0.47074761     1.93740
Cr1290     Cr  0.55011911  0.55397511  0.40034113     1.93210
Cr1291     Cr  0.62414462  0.59461214  0.44322357     1.39100
O1292       O  0.59523606  0.55780148  0.43778413    -1.23960
O1293       O  0.86216997  0.80916079  0.22585411    -0.86210
O1294       O  0.93567034  0.78989573  0.26018852    -0.83250
C1295       C  0.96822571  0.78020039  0.28289475     0.97260
O1296       O  0.97730063  0.78130975  0.31555654    -0.83290
O1297       O  0.96637749  0.85001304  0.32660849    -0.85930
C1298       C  0.95167559  0.87835441  0.32871101     1.01780
O1299       O  0.91614200  0.87958763  0.32068255    -0.78690
O1300       O  0.87765135  0.85994342  0.25180411    -0.78880
C1301       C  0.87087151  0.84109529  0.22565464     1.01730
O1302       O  0.84781992  0.76220683  0.27209357    -0.86200
O1303       O  0.92279376  0.73811342  0.30301831    -0.83270
C1304       C  0.93671566  0.73706076  0.33660587     0.97280
O1305       O  0.93466836  0.76349143  0.35283295    -0.83290
O1306       O  0.93019015  0.83258754  0.36942239    -0.85900
C1307       C  0.89620130  0.83820288  0.36473331     1.01750
O1308       O  0.86792218  0.83233792  0.33501507    -0.78720
O1309       O  0.82413058  0.81553263  0.26444701    -0.78870
C1310       C  0.81973672  0.78237250  0.26379611     1.01710
Cr1311     Cr  0.89249625  0.77675738  0.26746377     1.93740
Cr1312     Cr  0.94914021  0.80702804  0.33868755     1.93210
Cr1313     Cr  0.87304019  0.84447975  0.29306685     1.39100
O1314       O  0.90453055  0.80920692  0.29998211    -1.23960
O1315       O  0.88473642  0.88446617  0.50352051    -0.86210
O1316       O  0.92103760  0.86422182  0.07260528    -0.83250
C1317       C  0.95686268  0.86796046  0.08236435     0.97260
O1318       O  0.96938360  0.89751771  0.08087727    -0.83290
O1319       O  0.97628459  0.96697494  0.07031614    -0.85930
C1320       C  0.96851367  0.96895238  0.03793269     1.01780
O1321       O  0.93670744  0.95923352  0.01399138    -0.78690
O1322       O  0.86550644  0.93500788  0.47715816    -0.78880
C1323       C  0.87679730  0.90375677  0.47732143     1.01730
O1324       O  0.82541151  0.92401243  0.01242539    -0.86200
O1325       O  0.86635540  0.90733106  0.08276448    -0.83270
C1326       C  0.89344445  0.90354340  0.11352274     0.97280
O1327       O  0.92776408  0.91073626  0.12007961    -0.83290
O1328       O  0.92850877  0.98018403  0.10407882    -0.85900
C1329       C  0.93017377  0.50728719  0.08852032     1.01750
O1330       O  0.91766336  0.50674131  0.05517391    -0.78720
O1331       O  0.84575164  0.97828983  0.02287035    -0.78870
C1332       C  0.81898774  0.95671324  0.01313898     1.01710
Cr1333     Cr  0.87589544  0.89740306  0.04301030     1.93740
Cr1334     Cr  0.94771189  0.93856540  0.09142965     1.93210
Cr1335     Cr  0.89166745  0.96779720  0.01931209     1.39100
O1336       O  0.90492523  0.93466200  0.05141012    -1.23960
C1337       C  0.85399403  0.89324182  0.41279326    -0.10010
C1338       C  0.88218146  0.88895583  0.44804605     0.06180
C1339       C  0.91505343  0.86841863  0.45547057    -0.03780
C1340       C  0.91848630  0.85165566  0.42818058    -0.08230
C1341       C  0.88985095  0.85486067  0.39292108     0.05300
C1342       C  0.85746842  0.87655383  0.38527198    -0.03260
Br1343     Br  0.81792011  0.88677228  0.33800890    -0.02950
H1344       H  0.82892087  0.90925253  0.40665165     0.09210
H1345       H  0.94402179  0.83621265  0.43463557     0.07230
Br1346     Br  0.95780308  0.86378206  0.00216695    -0.03380
C1347       C  0.91267499  0.89310186  0.17663560    -0.10010
C1348       C  0.88546938  0.88826125  0.14125700     0.06180
C1349       C  0.85276912  0.86711727  0.13348966    -0.03780
C1350       C  0.84854112  0.85133680  0.16107298    -0.08230
C1351       C  0.87582021  0.85667208  0.19643349     0.05300
C1352       C  0.90811584  0.87782940  0.20389960    -0.03260
Br1353     Br  0.94885166  0.88571919  0.25061543    -0.02950
H1354       H  0.93800982  0.90878339  0.18327667     0.09210
H1355       H  0.82365059  0.83518393  0.15489112     0.07230
Br1356     Br  0.81330572  0.85711176  0.08623279    -0.03380
C1357       C  0.73740085  0.00434976  0.01627102    -0.10010
C1358       C  0.71882592  0.51935999  0.48230133     0.06180
C1359       C  0.73107613  0.51016670  0.45745663    -0.03780
C1360       C  0.76196847  0.98691033  0.46702710    -0.08230
C1361       C  0.78052793  0.97185785  0.00101934     0.05300
C1362       C  0.76825178  0.98112935  0.02583833    -0.03260
Br1363     Br  0.79360715  0.96345360  0.07343300    -0.02950
H1364       H  0.72720410  0.01006220  0.03517145     0.09210
H1365       H  0.77230918  0.98135210  0.44820670     0.07230
Br1366     Br  0.70596665  0.52845434  0.41009154    -0.03380
C1367       C  0.01105463  0.96264764  0.51205709    -0.10010
C1368       C  0.99348129  0.98509825  0.02567535     0.06180
C1369       C  0.98776710  0.52044923  0.01482517    -0.03780
C1370       C  0.49847118  0.53238322  0.48999740    -0.08230
C1371       C  0.51527530  0.50975314  0.47572299     0.05300
C1372       C  0.52279416  0.97472710  0.48802443    -0.03260
Br1373     Br  0.55081906  0.94193282  0.47535520    -0.02950
H1374       H  0.01452617  0.93520014  0.51931524     0.09210
H1375       H  0.49514067  0.55987132  0.48290190     0.07230
Br1376     Br  0.96504980  0.55389264  0.03229805    -0.03380
C1377       C  0.51220037  0.90948315  0.34109462    -0.10010
C1378       C  0.97811718  0.90829460  0.34424272     0.06180
C1379       C  0.97387713  0.93202557  0.36719220    -0.03780
C1380       C  0.50352729  0.95518388  0.38694094    -0.08230
C1381       C  0.53769324  0.95602444  0.38432459     0.05300
C1382       C  0.54145219  0.93355831  0.36034669    -0.03260
Br1383     Br  0.58644966  0.93407524  0.35414950    -0.02950
H1384       H  0.51653462  0.89112659  0.32412212     0.09210
H1385       H  0.49938461  0.97259603  0.40444843     0.07230
Br1386     Br  0.92995077  0.93309135  0.37520888    -0.03380
C1387       C  0.95098726  0.67380419  0.34922355    -0.10010
C1388       C  0.96278436  0.70844274  0.35733296     0.06180
C1389       C  0.00114591  0.71551972  0.38331666    -0.03780
C1390       C  0.52709807  0.68808620  0.39954368    -0.08230
C1391       C  0.51544522  0.65336304  0.39139755     0.05300
C1392       C  0.97652471  0.64628715  0.36639903    -0.03260
Br1393     Br  0.95613614  0.59994262  0.35245134    -0.02950
H1394       H  0.92180194  0.66813174  0.32926004     0.09210
H1395       H  0.55657381  0.69394469  0.41867273     0.07230
Br1396     Br  0.52109706  0.76201019  0.39666796    -0.03380
C1397       C  0.58625568  0.61752616  0.28084104    -0.10010
C1398       C  0.62185554  0.63366296  0.29033294     0.06180
C1399       C  0.65015573  0.63311249  0.32593701    -0.03780
C1400       C  0.64253102  0.61683458  0.35129076    -0.08230
C1401       C  0.60666513  0.60088208  0.34208795     0.05300
C1402       C  0.57833855  0.60145452  0.30612450    -0.03260
Br1403     Br  0.52881769  0.58003687  0.28920673    -0.02950
H1404       H  0.56426507  0.61741451  0.25330854     0.09210
H1405       H  0.66503434  0.61695999  0.37857795     0.07230
Br1406     Br  0.70032864  0.65212745  0.34085686    -0.03380
C1407       C  0.64116712  0.61721239  0.10189286    -0.10010
C1408       C  0.60654627  0.63582195  0.09239624     0.06180
C1409       C  0.57937877  0.63785520  0.05614916    -0.03780
C1410       C  0.58750340  0.62236241  0.03076325    -0.08230
C1411       C  0.62210974  0.60403265  0.04036105     0.05300
C1412       C  0.64889407  0.60123869  0.07641100    -0.03260
Br1413     Br  0.69715783  0.57764407  0.09196254    -0.02950
H1414       H  0.66249907  0.61475127  0.12949395     0.09210
H1415       H  0.56638182  0.62464457  0.00304053     0.07230
Br1416     Br  0.53132097  0.66232338  0.03911108    -0.03380
C1417       C  0.97823328  0.59482564  0.11930424    -0.10010
C1418       C  0.51606780  0.58450553  0.14379138     0.06180
C1419       C  0.52390846  0.54891605  0.15210830    -0.03780
C1420       C  0.99439092  0.52447912  0.13543752    -0.08230
C1421       C  0.95706051  0.53483418  0.10997136     0.05300
C1422       C  0.94897729  0.57039632  0.10236318    -0.03260
Br1423     Br  0.89873304  0.58668224  0.06881894    -0.02950
H1424       H  0.97142815  0.62217355  0.11257166     0.09210
H1425       H  0.00112347  0.49698879  0.14130100     0.07230
Br1426     Br  0.57374236  0.53242352  0.18628747    -0.03380
C1427       C  0.97178239  0.80426278  0.09153076    -0.10010
C1428       C  0.98502315  0.83874670  0.09786843     0.06180
C1429       C  0.52508433  0.84460375  0.12023921    -0.03780
C1430       C  0.54983638  0.81645756  0.13722114    -0.08230
C1431       C  0.53628820  0.78219889  0.13114966     0.05300
C1432       C  0.49694974  0.77614965  0.10723341    -0.03260
Br1433     Br  0.97483981  0.73023844  0.09576188    -0.02950
H1434       H  0.94159396  0.79905528  0.07423396     0.09210
H1435       H  0.57993333  0.82134106  0.15519604     0.07230
Br1436     Br  0.54896311  0.88992698  0.13026208    -0.03380
C1437       C  0.73129076  0.72748537  0.20963088    -0.10010
C1438       C  0.71759404  0.72155576  0.23399536     0.06180
C1439       C  0.73599723  0.73846649  0.26717737    -0.03780
C1440       C  0.76802688  0.75993095  0.27590636    -0.08230
C1441       C  0.78178467  0.76573346  0.25162063     0.05300
C1442       C  0.76320149  0.74917538  0.21828841    -0.03260
Br1443     Br  0.78028231  0.75604814  0.18360983    -0.02950
H1444       H  0.71648237  0.71603508  0.18345339     0.09210
H1445       H  0.78264434  0.77163474  0.30197906     0.07230
Br1446     Br  0.71790776  0.73341953  0.30129513    -0.03380
C1447       C  0.98019521  0.72652892  0.25883925    -0.10010
C1448       C  0.99068503  0.76138295  0.26928682     0.06180
C1449       C  0.51232301  0.77962335  0.25645945    -0.03780
C1450       C  0.52259665  0.76320972  0.23304427    -0.08230
C1451       C  0.51168775  0.72853257  0.22222466     0.05300
C1452       C  0.99100474  0.70992586  0.23584799    -0.03260
Br1453     Br  0.97741630  0.66188088  0.22383356    -0.02950
H1454       H  0.96237611  0.71256516  0.26763748     0.09210
H1455       H  0.54059772  0.77709172  0.22439440     0.07230
Br1456     Br  0.52910258  0.82654620  0.27099956    -0.03380
O1457       O  0.61974982  0.62936981  0.73504056    -0.86210
O1458       O  0.57993549  0.60968456  0.66619076    -0.83250
C1459       C  0.54504721  0.61240526  0.65999756     0.97260
O1460       O  0.53263114  0.64122361  0.66375912    -0.83290
O1461       O  0.52290058  0.70939447  0.67441130    -0.85930
C1462       C  0.53312877  0.71016811  0.70733218     1.01780
O1463       O  0.56592199  0.70033963  0.72918124    -0.78690
O1464       O  0.63853983  0.67972686  0.76127068    -0.78880
C1465       C  0.62831027  0.64826181  0.76153484     1.01730
O1466       O  0.67426984  0.67228910  0.72152902    -0.86200
O1467       O  0.62892108  0.65542985  0.65113716    -0.83270
C1468       C  0.60005671  0.65121795  0.62128449     0.97280
O1469       O  0.56640748  0.65701809  0.61759975    -0.83290
O1470       O  0.56271245  0.72646003  0.63436412    -0.85900
C1471       C  0.56208239  0.75300792  0.65118475     1.01750
O1472       O  0.57736180  0.75178709  0.68493595    -0.78720
O1473       O  0.65175966  0.72611435  0.71366150    -0.78870
C1474       C  0.67936179  0.70540058  0.72182078     1.01710
Cr1475     Cr  0.62434823  0.64406727  0.69350623     1.93740
Cr1476     Cr  0.54909609  0.68316872  0.64969077     1.93210
Cr1477     Cr  0.60795934  0.71268519  0.72007059     1.39100
O1478       O  0.59431665  0.68040890  0.68728898    -1.23960
O1479       O  0.64087052  0.55909923  0.51135074    -0.86210
O1480       O  0.57014249  0.53504417  0.98152364    -0.83250
C1481       C  0.53711339  0.52580726  0.95996526     0.97260
O1482       O  0.52544822  0.52813352  0.92671283    -0.83410
O1483       O  0.53215286  0.59625159  0.91289283    -0.85930
C1484       C  0.54392875  0.62492722  0.90809348     1.01780
O1485       O  0.57896625  0.62794855  0.91499272    -0.78690
O1486       O  0.61905195  0.60902016  0.98455771    -0.78880
C1487       C  0.62885751  0.59006380  0.51138225     1.01730
O1488       O  0.65368603  0.51387369  0.96206019    -0.86200
O1489       O  0.58124716  0.98604377  0.93675300    -0.83270
C1490       C  0.56531668  0.98421837  0.90315746     0.97280
O1491       O  0.56490123  0.51058361  0.88565414    -0.83290
O1492       O  0.56666559  0.57969828  0.86747708    -0.85900
C1493       C  0.60021159  0.58598422  0.87119137     1.01750
O1494       O  0.62905234  0.58279653  0.90125526    -0.78720
O1495       O  0.67497407  0.56781496  0.97177698    -0.78870
C1496       C  0.68070547  0.53502902  0.97069068     1.01710
Cr1497     Cr  0.61114060  0.52537628  0.97074761     1.93740
Cr1498     Cr  0.55011911  0.55397512  0.90034113     1.93210
Cr1499     Cr  0.62414462  0.59461214  0.94322357     1.39100
O1500       O  0.59523607  0.55780148  0.93778414    -1.23960
O1501       O  0.86216996  0.80916079  0.72585411    -0.86210
O1502       O  0.93567033  0.78989574  0.76018852    -0.83250
C1503       C  0.96822571  0.78020040  0.78289474     0.97260
O1504       O  0.97730063  0.78130976  0.81555653    -0.83290
O1505       O  0.96637749  0.85001305  0.82660849    -0.85930
C1506       C  0.95167559  0.87835441  0.82871101     1.01780
O1507       O  0.91614199  0.87958764  0.82068255    -0.78690
O1508       O  0.87765135  0.85994342  0.75180410    -0.78880
C1509       C  0.87087151  0.84109529  0.72565464     1.01730
O1510       O  0.84781992  0.76220683  0.77209357    -0.86200
O1511       O  0.92279376  0.73811343  0.80301831    -0.83270
C1512       C  0.93671567  0.73706076  0.83660587     0.97280
O1513       O  0.93466836  0.76349143  0.85283295    -0.83290
O1514       O  0.93019015  0.83258754  0.86942238    -0.85900
C1515       C  0.89620130  0.83820288  0.86473331     1.01750
O1516       O  0.86792218  0.83233792  0.83501507    -0.78720
O1517       O  0.82413058  0.81553263  0.76444701    -0.78870
C1518       C  0.81973672  0.78237250  0.76379611     1.01710
Cr1519     Cr  0.89249625  0.77675739  0.76746377     1.93740
Cr1520     Cr  0.94914021  0.80702804  0.83868755     1.93210
Cr1521     Cr  0.87304019  0.84447976  0.79306685     1.39100
O1522       O  0.90453055  0.80920693  0.79998211    -1.23960
O1523       O  0.88473642  0.88446616  0.00352051    -0.86210
O1524       O  0.92103760  0.86422182  0.57260527    -0.83250
C1525       C  0.95686267  0.86796046  0.58236435     0.97260
O1526       O  0.96938359  0.89751771  0.58087727    -0.83290
O1527       O  0.97628458  0.96697495  0.57031614    -0.85930
C1528       C  0.96851366  0.96895238  0.53793269     1.01780
O1529       O  0.93670743  0.95923352  0.51399137    -0.78690
O1530       O  0.86550645  0.93500788  0.97715816    -0.78880
C1531       C  0.87679731  0.90375677  0.97732144     1.01730
O1532       O  0.82541151  0.92401243  0.51242538    -0.86200
O1533       O  0.86635539  0.90733105  0.58276447    -0.83270
C1534       C  0.89344444  0.90354340  0.61352273     0.97280
O1535       O  0.92776407  0.91073626  0.62007960    -0.83290
O1536       O  0.92850877  0.98018403  0.60407882    -0.85900
C1537       C  0.93017377  0.50728719  0.58852031     1.01750
O1538       O  0.91766335  0.50674131  0.55517390    -0.78720
O1539       O  0.84575163  0.97828983  0.52287035    -0.78870
C1540       C  0.81898773  0.95671324  0.51313898     1.01710
Cr1541     Cr  0.87589544  0.89740306  0.54301030     1.93740
Cr1542     Cr  0.94771188  0.93856540  0.59142965     1.93210
Cr1543     Cr  0.89166744  0.96779720  0.51931209     1.39100
O1544       O  0.90492522  0.93466200  0.55141012    -1.23960
C1545       C  0.85399404  0.89324182  0.91279326    -0.10010
C1546       C  0.88218146  0.88895583  0.94804606     0.06180
C1547       C  0.91505342  0.86841861  0.95547057    -0.03780
C1548       C  0.91848630  0.85165565  0.92818058    -0.08230
C1549       C  0.88985096  0.85486067  0.89292108     0.05300
C1550       C  0.85746842  0.87655384  0.88527198    -0.03260
Br1551     Br  0.81792013  0.88677230  0.83800890    -0.02950
H1552       H  0.82892089  0.90925254  0.90665166     0.09210
H1553       H  0.94402179  0.83621263  0.93463557     0.07230
Br1554     Br  0.95780309  0.86378210  0.50216694    -0.03380
C1555       C  0.91267498  0.89310187  0.67663560    -0.10010
C1556       C  0.88546937  0.88826125  0.64125699     0.06180
C1557       C  0.85276912  0.86711726  0.63348966    -0.03780
C1558       C  0.84854112  0.85133680  0.66107298    -0.08230
C1559       C  0.87582020  0.85667209  0.69643349     0.05300
C1560       C  0.90811583  0.87782942  0.70389959    -0.03260
Br1561     Br  0.94885165  0.88571921  0.75061543    -0.02950
H1562       H  0.93800981  0.90878340  0.68327667     0.09210
H1563       H  0.82365060  0.83518392  0.65489112     0.07230
Br1564     Br  0.81330573  0.85711175  0.58623279    -0.03380
C1565       C  0.73740085  0.00434976  0.51627102    -0.10010
C1566       C  0.71882592  0.51935999  0.98230133     0.06180
C1567       C  0.73107616  0.51016673  0.95745664    -0.03780
C1568       C  0.76196848  0.98691034  0.96702710    -0.08230
C1569       C  0.78052793  0.97185784  0.50101934     0.05300
C1570       C  0.76825178  0.98112935  0.52583833    -0.03260
Br1571     Br  0.79360715  0.96345360  0.57343300    -0.02950
H1572       H  0.72720411  0.01006221  0.53517145     0.09210
H1573       H  0.77230919  0.98135211  0.94820671     0.07230
Br1574     Br  0.70596670  0.52845441  0.91009156    -0.03380
C1575       C  0.01105464  0.96264763  0.01205710    -0.10010
C1576       C  0.99348128  0.98509825  0.52567535     0.06180
C1577       C  0.98776705  0.52044923  0.51482512    -0.03780
C1578       C  0.49847121  0.53238323  0.98999744    -0.08230
C1579       C  0.51527530  0.50975314  0.97572299     0.05300
C1580       C  0.52279417  0.97472710  0.98802443    -0.03260
Br1581     Br  0.55081907  0.94193282  0.97535521    -0.02950
H1582       H  0.01452618  0.93520014  0.01931525     0.09210
H1583       H  0.49514073  0.55987134  0.98290196     0.07230
Br1584     Br  0.96504971  0.55389263  0.53229796    -0.03380
C1585       C  0.51220037  0.90948315  0.84109461    -0.10010
C1586       C  0.97811718  0.90829460  0.84424272     0.06180
C1587       C  0.97387713  0.93202557  0.86719221    -0.03780
C1588       C  0.50352729  0.95518387  0.88694095    -0.08230
C1589       C  0.53769325  0.95602444  0.88432459     0.05300
C1590       C  0.54145219  0.93355832  0.86034668    -0.03260
Br1591     Br  0.58644964  0.93407525  0.85414949    -0.02950
H1592       H  0.51653461  0.89112660  0.82412210     0.09210
H1593       H  0.49938462  0.97259602  0.90444845     0.07230
Br1594     Br  0.92995078  0.93309134  0.87520890    -0.03380
C1595       C  0.95098726  0.67380419  0.84922356    -0.10010
C1596       C  0.96278436  0.70844275  0.85733296     0.06180
C1597       C  0.00114592  0.71551973  0.88331665    -0.03780
C1598       C  0.52709808  0.68808620  0.89954368    -0.08230
C1599       C  0.51544523  0.65336304  0.89139755     0.05300
C1600       C  0.97652471  0.64628715  0.86639905    -0.03260
Br1601     Br  0.95613613  0.59994263  0.85245137    -0.02950
H1602       H  0.92180194  0.66813175  0.82926006     0.09210
H1603       H  0.55657382  0.69394470  0.91867272     0.07230
Br1604     Br  0.52109707  0.76201019  0.89666794    -0.03380
C1605       C  0.58625568  0.61752614  0.78084104    -0.10010
C1606       C  0.62185554  0.63366295  0.79033294     0.06180
C1607       C  0.65015572  0.63311251  0.82593701    -0.03780
C1608       C  0.64253101  0.61683460  0.85129076    -0.08230
C1609       C  0.60666513  0.60088208  0.84208795     0.05300
C1610       C  0.57833856  0.60145450  0.80612450    -0.03260
Br1611     Br  0.52881771  0.58003683  0.78920673    -0.02950
H1612       H  0.56426508  0.61741447  0.75330854     0.09210
H1613       H  0.66503432  0.61696003  0.87857795     0.07230
Br1614     Br  0.70032861  0.65212750  0.84085687    -0.03380
C1615       C  0.64116711  0.61721240  0.60189286    -0.10010
C1616       C  0.60654627  0.63582196  0.59239624     0.06180
C1617       C  0.57937877  0.63785521  0.55614916    -0.03780
C1618       C  0.58750340  0.62236242  0.53076325    -0.08230
C1619       C  0.62210974  0.60403265  0.54036104     0.05300
C1620       C  0.64889407  0.60123870  0.57641100    -0.03260
Br1621     Br  0.69715783  0.57764407  0.59196254    -0.02950
H1622       H  0.66249907  0.61475127  0.62949394     0.09210
H1623       H  0.56638182  0.62464458  0.50304053     0.07230
Br1624     Br  0.53132097  0.66232339  0.53911108    -0.03380
C1625       C  0.97823328  0.59482564  0.61930423    -0.10010
C1626       C  0.51606780  0.58450553  0.64379137     0.06180
C1627       C  0.52390846  0.54891605  0.65210829    -0.03780
C1628       C  0.99439092  0.52447912  0.63543751    -0.08230
C1629       C  0.95706051  0.53483418  0.60997135     0.05300
C1630       C  0.94897729  0.57039632  0.60236317    -0.03260
Br1631     Br  0.89873304  0.58668224  0.56881893    -0.02950
H1632       H  0.97142815  0.62217355  0.61257164     0.09210
H1633       H  0.00112347  0.49698879  0.64130099     0.07230
Br1634     Br  0.57374236  0.53242352  0.68628745    -0.03380
C1635       C  0.97178239  0.80426278  0.59153075    -0.10010
C1636       C  0.98502315  0.83874670  0.59786842     0.06180
C1637       C  0.52508433  0.84460375  0.62023921    -0.03780
C1638       C  0.54983638  0.81645756  0.63722114    -0.08230
C1639       C  0.53628819  0.78219889  0.63114966     0.05300
C1640       C  0.49694973  0.77614965  0.60723341    -0.03260
Br1641     Br  0.97483981  0.73023844  0.59576187    -0.02950
H1642       H  0.94159396  0.79905528  0.57423395     0.09210
H1643       H  0.57993332  0.82134106  0.65519604     0.07230
Br1644     Br  0.54896310  0.88992698  0.63026208    -0.03380
C1645       C  0.73129077  0.72748534  0.70963089    -0.10010
C1646       C  0.71759404  0.72155576  0.73399537     0.06180
C1647       C  0.73599721  0.73846651  0.76717736    -0.03780
C1648       C  0.76802687  0.75993097  0.77590635    -0.08230
C1649       C  0.78178467  0.76573346  0.75162062     0.05300
C1650       C  0.76320150  0.74917536  0.71828841    -0.03260
Br1651     Br  0.78028234  0.75604809  0.68360985    -0.02950
H1652       H  0.71648239  0.71603504  0.68345341     0.09210
H1653       H  0.78264431  0.77163477  0.80197904     0.07230
Br1654     Br  0.71790772  0.73341958  0.80129511    -0.03380
C1655       C  0.98019522  0.72652892  0.75883926    -0.10010
C1656       C  0.99068502  0.76138295  0.76928681     0.06180
C1657       C  0.51232299  0.77962336  0.75645942    -0.03780
C1658       C  0.52259663  0.76320973  0.73304424    -0.08230
C1659       C  0.51168774  0.72853257  0.72222465     0.05300
C1660       C  0.99100475  0.70992585  0.73584801    -0.03260
Br1661     Br  0.97741633  0.66188087  0.72383360    -0.02950
H1662       H  0.96237614  0.71256516  0.76763750     0.09210
H1663       H  0.54059768  0.77709173  0.72439436     0.07230
Br1664     Br  0.52910255  0.82654621  0.77099951    -0.03380
loop_ 
_geom_bond_atom_site_label_1 
_geom_bond_atom_site_label_2 
_geom_bond_distance 
_geom_bond_site_symmetry_2 
_ccdc_geom_bond_type 
O1          Cr19   1.955       .  S
O1            C9   1.252       .  A
O2          Cr19   2.061       .  S
O2            C3   1.277       .  A
C3            O4   1.247       .  A
C3          C170   1.479       .  S
O4          Cr20   1.932       .  S
O5          Cr20   2.058       .  S
O5            C6   1.271       .  A
C6            O7   1.242       .  A
C6          C203   1.459       .  S
O7          Cr21   1.935       .  S
O8          Cr21   2.033       .  S
O8            C9   1.272       .  A
C9          C150   1.482       .  S
O10         Cr19   2.065       .  S
O10          C18   1.282       .  A
O11         Cr19   1.956       .  S
O11          C12   1.258       .  A
C12          O13   1.280       .  A
C12         C160   1.499       .  S
O13         Cr20   2.062       .  S
O14         Cr20   1.949       .  S
O14          C15   1.254       .  A
C15          O16   1.277       .  A
C15         C183   1.478       .  S
O16         Cr21   2.056       .  S
O17         Cr21   1.945       .  S
O17          C18   1.254       .  A
C18         C190   1.480       .  S
Cr19         O22   1.761       .  S
Cr20         O22   1.752       .  S
Cr21         O22   1.755       .  S
O23        Cr249   2.037   1_554  S
O23          C31   1.275       .  A
O24         Cr41   1.917       .  S
O24          C25   1.241       .  A
C25          O26   1.276       .  A
C25         C123   1.459       .  S
O26         Cr42   2.060       .  S
O27         Cr42   1.941       .  S
O27          C28   1.247       .  A
C28          O29   1.276       .  A
C28         C143   1.480       .  S
O29         Cr43   2.052       .  S
O30         Cr43   1.955       .  S
O30         C239   1.254       .  A
C31         O238   1.254   1_554  A
C31         C163   1.488       .  S
O32         Cr41   1.934       .  S
O32          C40   1.249       .  A
O33        Cr457   2.041       .  S
O33          C34   1.271       .  A
C34         O451   1.251       .  A
C34         C133   1.476       .  S
O35         Cr42   1.959       .  S
O35         C450   1.251   1_545  A
O36         Cr42   2.061       .  S
O36          C37   1.280       .  A
C37          O38   1.257       .  A
C37         C153   1.498       .  S
O38         Cr43   1.952       .  S
O39         Cr43   2.058       .  S
O39          C40   1.279       .  A
C40         C110   1.469       .  S
Cr41        O231   2.037       .  S
Cr41        O449   2.041   1_545  S
Cr41         O44   1.755       .  S
Cr42         O44   1.751       .  S
Cr43         O44   1.760       .  S
O45         Cr63   2.028       .  S
O45          C53   1.271       .  A
O46         Cr63   1.939       .  S
O46          C47   1.244       .  A
C47          O48   1.271       .  A
C47         C200   1.460       .  S
O48         Cr64   2.056       .  S
O49         Cr64   1.942       .  S
O49          C50   1.252       .  A
C50          O51   1.277       .  A
C50         C130   1.481       .  S
O51         Cr65   2.051       .  S
O52         Cr65   1.952       .  S
O52          C53   1.252       .  A
C53         C103   1.480       .  S
O54         Cr63   1.948       .  S
O54          C62   1.254       .  A
O55         Cr63   2.048       .  S
O55          C56   1.275       .  A
C56          O57   1.252       .  A
C56         C140   1.474       .  S
O57         Cr64   1.948       .  S
O58         Cr64   2.046       .  S
O58          C59   1.277       .  A
C59          O60   1.255       .  A
C59          C93   1.489       .  S
O60         Cr65   1.957       .  S
O61         Cr65   2.057       .  S
O61          C62   1.279       .  A
C62         C193   1.479       .  S
Cr63         O66   1.758       .  S
Cr64         O66   1.759       .  S
Cr65         O66   1.760       .  S
O67        Cr293   1.947       .  S
O67          C75   1.252       .  A
O68         Cr85   2.059       .  S
O68          C69   1.279       .  A
C69          O70   1.249       .  A
C69         C180   1.490       .  S
O70         Cr86   1.940       .  S
O71         Cr86   2.059       .  S
O71          C72   1.274       .  A
C72          O73   1.245       .  A
C72         C120   1.456       .  S
O73         Cr87   1.924       .  S
O74        Cr295   2.037       .  S
O74          C75   1.274       .  A
C75          C90   1.481       .  S
O76         Cr85   2.059       .  S
O76          C84   1.279       .  A
O77         Cr85   1.949       .  S
O77          C78   1.251       .  A
C78          O79   1.277       .  A
C78         C100   1.485       .  S
O79         Cr86   2.043       .  S
O80         Cr86   1.947       .  S
O80         C497   1.250       .  A
C81          O82   1.272       .  A
C81         O496   1.250   1_545  A
C81         C173   1.472       .  S
O82        Cr503   2.039   1_545  S
O83         Cr87   1.931       .  S
O83          C84   1.249       .  A
C84         C113   1.469       .  S
Cr85        O275   1.947       .  S
Cr85         O88   1.759       .  S
Cr86         O88   1.754       .  S
Cr87        O282   2.037   1_554  S
Cr87        O498   2.039       .  S
Cr87         O88   1.756       .  S
C89          C90   1.398       .  A
C89          C94   1.405       .  A
C89          H96   1.084       .  S
C90          C91   1.416       .  A
C91          C92   1.396       .  A
C91        Br306   1.919       .  S
C92          C93   1.399       .  A
C92          H97   1.084       .  S
C93          C94   1.424       .  A
C94         Br95   1.922       .  S
Br98        C299   1.919   1_554  S
C99         C100   1.395       .  A
C99         C104   1.391       .  A
C99         H106   1.084       .  S
C100        C101   1.425       .  A
C101        C102   1.405       .  A
C101       Br108   1.922       .  S
C102        C103   1.398       .  A
C102        H107   1.084       .  S
C103        C104   1.415       .  A
C104       Br105   1.908       .  S
C109        C114   1.401       .  A
C109        C734   1.404   1_554  A
C109        H116   1.084       .  S
C110        C111   1.407       .  A
C110        C733   1.404       .  A
C111        C528   1.403   1_545  A
C111       Br118   1.918       .  S
C112        C527   1.403       .  A
C112        C321   1.405       .  A
C112        H117   1.084       .  S
C113        C114   1.407       .  A
C113        C320   1.405   1_554  A
C114       Br115   1.918       .  S
C119        C328   1.394       .  A
C119        C956   1.393       .  A
C119        H126   1.084       .  S
C120        C327   1.394       .  A
C120        C537   1.412       .  A
C121        C536   1.412   1_545  A
C121       C1162   1.394   1_554  A
C121       Br128   1.907       .  S
C122        C123   1.395   1_655  A
C122       C1161   1.394       .  A
C122        H127   1.084       .  S
C123        C540   1.417   1_545  A
C124        C951   1.393       .  A
C124        C539   1.417       .  A
C124       Br125   1.913       .  S
C129        C134   1.403       .  A
C129        C962   1.415   1_455  A
C129        H136   1.082       .  S
C130        C131   1.406       .  A
C130        C961   1.415       .  A
C131        C964   1.393       .  A
C131       Br138   1.921       .  S
C132        C133   1.406       .  A
C132        C963   1.393   1_455  A
C132        H137   1.073   1_455  S
C133        C134   1.401       .  A
C134       Br135   1.916       .  S
C139        C140   1.395       .  A
C139        C144   1.399       .  A
C139        H146   1.084       .  S
C140        C141   1.419       .  A
C141        C974   1.397       .  A
C141       Br980   1.922       .  S
C142        C143   1.397       .  A
C142        C973   1.397       .  A
C142        H147   1.084       .  S
C143        C976   1.423   1_455  A
C144        C975   1.423       .  A
C144       Br145   1.924       .  S
Br148       C973   1.922       .  S
C149        C150   1.409       .  A
C149        C154   1.403       .  A
C149        H156   1.084       .  S
C150        C151   1.401       .  A
C151        C152   1.402       .  A
C151       Br158   1.916       .  S
C152        C153   1.417       .  A
C152        H157   1.083       .  S
C153        C154   1.412       .  A
C154       Br155   1.920       .  S
C159        C160   1.417       .  A
C159        C164   1.406       .  A
C159        H166   1.083       .  S
C160        C161   1.411       .  A
C161        C162   1.403       .  A
C161       Br168   1.920       .  S
C162        C163   1.411       .  A
C162        H167   1.084       .  S
C163        C164   1.403       .  A
C164       Br165   1.917       .  S
C169        C174   1.396       .  A
C169       C1002   1.414       .  A
C169        H176   1.084       .  S
C170        C171   1.403       .  A
C170       C1001   1.414   1_455  A
C171       C1004   1.400   1_455  A
C171       Br178   1.917       .  S
C172        C173   1.412       .  A
C172       C1003   1.400       .  A
C172        H177   1.084   1_545  S
C173        C174   1.399       .  A
C174       Br175   1.918       .  S
C179        C180   1.399       .  A
C179       C1016   1.399       .  A
C179        H186   1.084       .  S
C180       C1013   1.427       .  A
C181        C182   1.401       .  A
C181       C1012   1.427   1_455  A
C181       Br188   1.925       .  S
C182        C183   1.394       .  A
C182        H187   1.084       .  S
C183        C184   1.418   1_455  A
C184       C1011   1.399       .  A
C184      Br1017   1.921       .  S
Br185      C1016   1.921       .  S
C189        C190   1.403       .  A
C189        C194   1.406       .  A
C189        H196   1.084       .  S
C190        C191   1.413       .  A
C191        C192   1.404       .  A
C191       Br198   1.917       .  S
C192        C193   1.401       .  A
C192        H197   1.084       .  S
C193        C194   1.412       .  A
C194       Br195   1.919       .  S
C199        C200   1.407       .  A
C199        C204   1.398       .  A
C199        H206   1.084       .  S
C200       C1033   1.402       .  A
C201        C202   1.397       .  A
C201       C1032   1.402   1_455  A
C201       Br208   1.915       .  S
C202        C203   1.406       .  A
C202        H207   1.084       .  S
C203       C1036   1.402   1_455  A
C204       C1035   1.402       .  A
C204       Br205   1.918       .  S
O209       Cr227   1.955       .  S
O209        C217   1.252       .  A
O210       Cr227   2.061       .  S
O210        C211   1.277       .  A
C211        O212   1.247       .  A
C211        C378   1.479       .  S
O212       Cr228   1.932       .  S
O213       Cr228   2.058       .  S
O213        C214   1.271       .  A
C214        O215   1.242       .  A
C214        C411   1.459       .  S
O215       Cr229   1.935       .  S
O216       Cr229   2.033       .  S
O216        C217   1.272       .  A
C217        C358   1.482       .  S
O218       Cr227   2.065       .  S
O218        C226   1.282       .  A
O219       Cr227   1.956       .  S
O219        C220   1.258       .  A
C220        O221   1.280       .  A
C220        C368   1.499       .  S
O221       Cr228   2.062       .  S
O222       Cr228   1.949       .  S
O222        C223   1.254       .  A
C223        O224   1.277       .  A
C223        C391   1.478       .  S
O224       Cr229   2.056       .  S
O225       Cr229   1.945       .  S
O225        C226   1.254       .  A
C226        C398   1.480       .  S
Cr227       O230   1.761       .  S
Cr228       O230   1.752       .  S
Cr229       O230   1.755       .  S
O231        C239   1.275       .  A
O232       Cr249   1.917       .  S
O232        C233   1.241       .  A
C233        O234   1.276       .  A
C233        C331   1.459       .  S
O234       Cr250   2.060       .  S
O235       Cr250   1.941       .  S
O235        C236   1.247       .  A
C236        O237   1.276       .  A
C236        C351   1.480       .  S
O237       Cr251   2.052       .  S
O238       Cr251   1.955       .  S
C239        C371   1.488       .  S
O240       Cr249   1.934       .  S
O240        C248   1.249       .  A
O241       Cr665   2.041       .  S
O241        C242   1.271       .  A
C242        O659   1.251       .  A
C242        C341   1.476       .  S
O243       Cr250   1.959       .  S
O243        C658   1.251   1_545  A
O244       Cr250   2.061       .  S
O244        C245   1.280       .  A
C245        O246   1.257       .  A
C245        C361   1.498       .  S
O246       Cr251   1.952       .  S
O247       Cr251   2.058       .  S
O247        C248   1.279       .  A
C248        C318   1.469       .  S
Cr249       O657   2.041   1_545  S
Cr249       O252   1.755       .  S
Cr250       O252   1.751       .  S
Cr251       O252   1.760       .  S
O253       Cr271   2.028       .  S
O253        C261   1.271       .  A
O254       Cr271   1.939       .  S
O254        C255   1.244       .  A
C255        O256   1.271       .  A
C255        C408   1.460       .  S
O256       Cr272   2.056       .  S
O257       Cr272   1.942       .  S
O257        C258   1.252       .  A
C258        O259   1.277       .  A
C258        C338   1.481       .  S
O259       Cr273   2.051       .  S
O260       Cr273   1.952       .  S
O260        C261   1.252       .  A
C261        C311   1.480       .  S
O262       Cr271   1.948       .  S
O262        C270   1.254       .  A
O263       Cr271   2.048       .  S
O263        C264   1.275       .  A
C264        O265   1.252       .  A
C264        C348   1.474       .  S
O265       Cr272   1.948       .  S
O266       Cr272   2.046       .  S
O266        C267   1.277       .  A
C267        O268   1.255       .  A
C267        C301   1.489       .  S
O268       Cr273   1.957       .  S
O269       Cr273   2.057       .  S
O269        C270   1.279       .  A
C270        C401   1.479       .  S
Cr271       O274   1.758       .  S
Cr272       O274   1.759       .  S
Cr273       O274   1.760       .  S
O275        C283   1.252   1_554  A
O276       Cr293   2.059       .  S
O276        C277   1.279       .  A
C277        O278   1.249       .  A
C277        C388   1.490       .  S
O278       Cr294   1.940       .  S
O279       Cr294   2.059       .  S
O279        C280   1.274       .  A
C280        O281   1.245       .  A
C280        C328   1.456       .  S
O281       Cr295   1.924       .  S
O282        C283   1.274       .  A
C283        C298   1.481       .  S
O284       Cr293   2.059       .  S
O284        C292   1.279       .  A
O285       Cr293   1.949       .  S
O285        C286   1.251       .  A
C286        O287   1.277       .  A
C286        C308   1.485       .  S
O287       Cr294   2.043       .  S
O288       Cr294   1.947       .  S
O288        C705   1.250       .  A
C289        O704   1.250   1_545  A
C289        O290   1.272       .  A
C289        C381   1.472       .  S
O290       Cr711   2.039   1_545  S
O291       Cr295   1.931       .  S
O291        C292   1.249       .  A
C292        C321   1.469       .  S
Cr293       O296   1.759       .  S
Cr294       O296   1.754       .  S
Cr295       O706   2.039       .  S
Cr295       O296   1.756       .  S
C297        C298   1.398       .  A
C297        C302   1.405       .  A
C297        H304   1.084       .  S
C298        C299   1.416       .  A
C299        C300   1.396       .  A
C300        C301   1.399       .  A
C300        H305   1.084       .  S
C301        C302   1.424       .  A
C302       Br303   1.922       .  S
C307        C308   1.395       .  A
C307        C312   1.391       .  A
C307        H314   1.084       .  S
C308        C309   1.425       .  A
C309        C310   1.405       .  A
C309       Br316   1.922       .  S
C310        C311   1.398       .  A
C310        H315   1.084       .  S
C311        C312   1.415       .  A
C312       Br313   1.908       .  S
C317        C526   1.404       .  A
C317        C322   1.401       .  A
C317        H324   1.084       .  S
C318        C525   1.404   1_556  A
C318        C319   1.407       .  A
C319        C736   1.403   1_545  A
C319       Br326   1.918       .  S
C320        C735   1.403       .  A
C320        H325   1.084       .  S
C321        C322   1.407       .  A
C322       Br323   1.918       .  S
C327       C1164   1.393   1_554  A
C327        H334   1.084       .  S
C328        C745   1.412       .  A
C329        C744   1.412   1_545  A
C329        C954   1.394       .  A
C329       Br336   1.907       .  S
C330        C953   1.394   1_556  A
C330        C331   1.395   1_655  A
C330        H335   1.084       .  S
C331        C748   1.417   1_545  A
C332       C1159   1.393   1_556  A
C332        C747   1.417       .  A
C332       Br333   1.913       .  S
C337       C1170   1.415   1_455  A
C337        C342   1.403       .  A
C337        H344   1.082       .  S
C338       C1169   1.415       .  A
C338        C339   1.406       .  A
C339       C1172   1.393       .  A
C339       Br346   1.921       .  S
C340       C1171   1.393   1_455  A
C340        C341   1.406       .  A
C340        H345   1.073   1_455  S
C341        C342   1.401       .  A
C342       Br343   1.916       .  S
C347        C348   1.395       .  A
C347        C352   1.399       .  A
C347        H354   1.084       .  S
C348        C349   1.419       .  A
C349       C1182   1.397       .  A
C349      Br1188   1.922       .  S
C350       C1181   1.397       .  A
C350        C351   1.397       .  A
C350        H355   1.084       .  S
C351       C1184   1.423   1_455  A
C352       C1183   1.423       .  A
C352       Br353   1.924       .  S
Br356      C1181   1.922       .  S
C357        C358   1.409       .  A
C357        C362   1.403       .  A
C357        H364   1.084       .  S
C358        C359   1.401       .  A
C359        C360   1.402       .  A
C359       Br366   1.916       .  S
C360        C361   1.417       .  A
C360        H365   1.083       .  S
C361        C362   1.412       .  A
C362       Br363   1.920       .  S
C367        C368   1.417       .  A
C367        C372   1.406       .  A
C367        H374   1.083       .  S
C368        C369   1.411       .  A
C369        C370   1.403       .  A
C369       Br376   1.920       .  S
C370        C371   1.411       .  A
C370        H375   1.084       .  S
C371        C372   1.403       .  A
C372       Br373   1.917       .  S
C377       C1210   1.414       .  A
C377        C382   1.396       .  A
C377        H384   1.084       .  S
C378       C1209   1.414   1_455  A
C378        C379   1.403       .  A
C379       C1212   1.400   1_455  A
C379       Br386   1.917       .  S
C380       C1211   1.400       .  A
C380        C381   1.412       .  A
C380        H385   1.084   1_545  S
C381        C382   1.399       .  A
C382       Br383   1.918       .  S
C387        C388   1.399       .  A
C387       C1224   1.399       .  A
C387        H394   1.084       .  S
C388       C1221   1.427       .  A
C389       C1220   1.427   1_455  A
C389        C390   1.401       .  A
C389       Br396   1.925       .  S
C390        C391   1.394       .  A
C390        H395   1.084       .  S
C391        C392   1.418   1_455  A
C392       C1219   1.399       .  A
C392      Br1225   1.921       .  S
Br393      C1224   1.921       .  S
C397        C398   1.403       .  A
C397        C402   1.406       .  A
C397        H404   1.084       .  S
C398        C399   1.413       .  A
C399        C400   1.404       .  A
C399       Br406   1.917       .  S
C400        C401   1.401       .  A
C400        H405   1.084       .  S
C401        C402   1.412       .  A
C402       Br403   1.919       .  S
C407        C408   1.407       .  A
C407        C412   1.398       .  A
C407        H414   1.084       .  S
C408       C1241   1.402       .  A
C409       C1240   1.402   1_455  A
C409        C410   1.397       .  A
C409       Br416   1.915       .  S
C410        C411   1.406       .  A
C410        H415   1.084       .  S
C411       C1244   1.402   1_455  A
C412       C1243   1.402       .  A
C412       Br413   1.918       .  S
O417       Cr435   1.955       .  S
O417        C425   1.252       .  A
O418       Cr435   2.061       .  S
O418        C419   1.277       .  A
C419        O420   1.247       .  A
C419        C586   1.479       .  S
O420       Cr436   1.932       .  S
O421       Cr436   2.058       .  S
O421        C422   1.271       .  A
C422        O423   1.242       .  A
C422        C619   1.459       .  S
O423       Cr437   1.935       .  S
O424       Cr437   2.033       .  S
O424        C425   1.272       .  A
C425        C566   1.482       .  S
O426       Cr435   2.065       .  S
O426        C434   1.282       .  A
O427       Cr435   1.956       .  S
O427        C428   1.258       .  A
C428        O429   1.280       .  A
C428        C576   1.499       .  S
O429       Cr436   2.062       .  S
O430       Cr436   1.949       .  S
O430        C431   1.254       .  A
C431        O432   1.277       .  A
C431        C599   1.478       .  S
O432       Cr437   2.056       .  S
O433       Cr437   1.945       .  S
O433        C434   1.254       .  A
C434        C606   1.480       .  S
Cr435       O438   1.761       .  S
Cr436       O438   1.752       .  S
Cr437       O438   1.755       .  S
O439       Cr665   2.037   1_554  S
O439        C447   1.275       .  A
O440       Cr457   1.917       .  S
O440        C441   1.241       .  A
C441        O442   1.276       .  A
C441        C539   1.459       .  S
O442       Cr458   2.060       .  S
O443       Cr458   1.941       .  S
O443        C444   1.247       .  A
C444        O445   1.276       .  A
C444        C559   1.480       .  S
O445       Cr459   2.052       .  S
O446       Cr459   1.955       .  S
O446        C655   1.254       .  A
C447        O654   1.254   1_554  A
C447        C579   1.488       .  S
O448       Cr457   1.934       .  S
O448        C456   1.249       .  A
O449        C450   1.271       .  A
C450        C549   1.476       .  S
O451       Cr458   1.959       .  S
O452       Cr458   2.061       .  S
O452        C453   1.280       .  A
C453        O454   1.257       .  A
C453        C569   1.498       .  S
O454       Cr459   1.952       .  S
O455       Cr459   2.058       .  S
O455        C456   1.279       .  A
C456        C526   1.469       .  S
Cr457       O647   2.037       .  S
Cr457       O460   1.755       .  S
Cr458       O460   1.750       .  S
Cr459       O460   1.760       .  S
O461       Cr479   2.028       .  S
O461        C469   1.271       .  A
O462       Cr479   1.939       .  S
O462        C463   1.244       .  A
C463        O464   1.271       .  A
C463        C616   1.460       .  S
O464       Cr480   2.056       .  S
O465       Cr480   1.942       .  S
O465        C466   1.252       .  A
C466        O467   1.277       .  A
C466        C546   1.481       .  S
O467       Cr481   2.052       .  S
O468       Cr481   1.952       .  S
O468        C469   1.252       .  A
C469        C519   1.480       .  S
O470       Cr479   1.948       .  S
O470        C478   1.254       .  A
O471       Cr479   2.048       .  S
O471        C472   1.275       .  A
C472        O473   1.252       .  A
C472        C556   1.474       .  S
O473       Cr480   1.948       .  S
O474       Cr480   2.046       .  S
O474        C475   1.277       .  A
C475        O476   1.255       .  A
C475        C509   1.489       .  S
O476       Cr481   1.957       .  S
O477       Cr481   2.057       .  S
O477        C478   1.279       .  A
C478        C609   1.479       .  S
Cr479       O482   1.758       .  S
Cr480       O482   1.759       .  S
Cr481       O482   1.760       .  S
O483       Cr709   1.947       .  S
O483        C491   1.252       .  A
O484       Cr501   2.059       .  S
O484        C485   1.279       .  A
C485        O486   1.249       .  A
C485        C596   1.490       .  S
O486       Cr502   1.940       .  S
O487       Cr502   2.059       .  S
O487        C488   1.274       .  A
C488        O489   1.245       .  A
C488        C536   1.456       .  S
O489       Cr503   1.924       .  S
O490       Cr711   2.037       .  S
O490        C491   1.274       .  A
C491        C506   1.481       .  S
O492       Cr501   2.059       .  S
O492        C500   1.279       .  A
O493       Cr501   1.949       .  S
O493        C494   1.251       .  A
C494        O495   1.277       .  A
C494        C516   1.485       .  S
O495       Cr502   2.043       .  S
O496       Cr502   1.947       .  S
C497        O498   1.272       .  A
C497        C589   1.472       .  S
O499       Cr503   1.931       .  S
O499        C500   1.249       .  A
C500        C529   1.469       .  S
Cr501       O691   1.947       .  S
Cr501       O504   1.759       .  S
Cr502       O504   1.754       .  S
Cr503       O698   2.037   1_554  S
Cr503       O504   1.756       .  S
C505        C506   1.398       .  A
C505        C510   1.405       .  A
C505        H512   1.084       .  S
C506        C507   1.416       .  A
C507        C508   1.396       .  A
C507       Br722   1.919       .  S
C508        C509   1.399       .  A
C508        H513   1.084       .  S
C509        C510   1.424       .  A
C510       Br511   1.922       .  S
Br514       C715   1.919   1_554  S
C515        C516   1.395       .  A
C515        C520   1.391       .  A
C515        H522   1.084       .  S
C516        C517   1.425       .  A
C517        C518   1.405       .  A
C517       Br524   1.922       .  S
C518        C519   1.398       .  A
C518        H523   1.084       .  S
C519        C520   1.415       .  A
C520       Br521   1.908       .  S
C525        C530   1.401   1_545  A
C525        H532   1.084       .  S
C526        C527   1.407       .  A
C527       Br534   1.918       .  S
C528        C737   1.405       .  A
C528        H533   1.084       .  S
C529        C736   1.405   1_554  A
C529        C530   1.407       .  A
C530       Br531   1.918       .  S
C535        C744   1.394       .  A
C535       C1372   1.393       .  A
C535        H542   1.084       .  S
C536        C743   1.394       .  A
C537       C1578   1.394   1_554  A
C537       Br544   1.907       .  S
C538       C1577   1.394       .  A
C538        C539   1.395   1_655  A
C538        H543   1.084       .  S
C540       C1367   1.393       .  A
C540       Br541   1.913       .  S
C545       C1378   1.415   1_455  A
C545        C550   1.403       .  A
C545        H552   1.082       .  S
C546       C1377   1.415       .  A
C546        C547   1.406       .  A
C547       C1380   1.393       .  A
C547       Br554   1.921       .  S
C548       C1379   1.393   1_455  A
C548        C549   1.406       .  A
C548        H553   1.073   1_455  S
C549        C550   1.401       .  A
C550       Br551   1.916       .  S
C555        C556   1.395       .  A
C555        C560   1.399       .  A
C555        H562   1.084       .  S
C556        C557   1.419       .  A
C557       C1390   1.397       .  A
C557      Br1396   1.922       .  S
C558       C1389   1.397       .  A
C558        C559   1.397       .  A
C558        H563   1.084       .  S
C559       C1392   1.423   1_455  A
C560       C1391   1.423       .  A
C560       Br561   1.924       .  S
Br564      C1389   1.922       .  S
C565        C566   1.409       .  A
C565        C570   1.403       .  A
C565        H572   1.084       .  S
C566        C567   1.401       .  A
C567        C568   1.402       .  A
C567       Br574   1.916       .  S
C568        C569   1.417       .  A
C568        H573   1.083       .  S
C569        C570   1.412       .  A
C570       Br571   1.920       .  S
C575        C576   1.417       .  A
C575        C580   1.406       .  A
C575        H582   1.083       .  S
C576        C577   1.411       .  A
C577        C578   1.403       .  A
C577       Br584   1.920       .  S
C578        C579   1.411       .  A
C578        H583   1.084       .  S
C579        C580   1.403       .  A
C580       Br581   1.917       .  S
C585       C1418   1.414       .  A
C585        C590   1.396       .  A
C585        H592   1.084       .  S
C586       C1417   1.414   1_455  A
C586        C587   1.403       .  A
C587       C1420   1.400   1_455  A
C587       Br594   1.917       .  S
C588       C1419   1.400       .  A
C588        C589   1.412       .  A
C588        H593   1.084       .  S
C589        C590   1.399       .  A
C590       Br591   1.918       .  S
C595        C596   1.399       .  A
C595       C1432   1.399       .  A
C595        H602   1.084       .  S
C596       C1429   1.427       .  A
C597       C1428   1.427   1_455  A
C597        C598   1.401       .  A
C597       Br604   1.925       .  S
C598        C599   1.394       .  A
C598        H603   1.084       .  S
C599        C600   1.418   1_455  A
C600       C1427   1.399       .  A
C600      Br1433   1.921       .  S
Br601      C1432   1.921       .  S
C605        C606   1.403       .  A
C605        C610   1.406       .  A
C605        H612   1.084       .  S
C606        C607   1.413       .  A
C607        C608   1.404       .  A
C607       Br614   1.917       .  S
C608        C609   1.401       .  A
C608        H613   1.084       .  S
C609        C610   1.412       .  A
C610       Br611   1.919       .  S
C615        C616   1.407       .  A
C615        C620   1.398       .  A
C615        H622   1.084       .  S
C616       C1449   1.402       .  A
C617       C1448   1.402   1_455  A
C617        C618   1.397       .  A
C617       Br624   1.915       .  S
C618        C619   1.406       .  A
C618        H623   1.084       .  S
C619       C1452   1.402   1_455  A
C620       C1451   1.402       .  A
C620       Br621   1.918       .  S
O625       Cr643   1.955       .  S
O625        C633   1.252       .  A
O626       Cr643   2.061       .  S
O626        C627   1.277       .  A
C627        O628   1.247       .  A
C627        C794   1.479       .  S
O628       Cr644   1.932       .  S
O629       Cr644   2.058       .  S
O629        C630   1.271       .  A
C630        O631   1.242       .  A
C630        C827   1.459       .  S
O631       Cr645   1.935       .  S
O632       Cr645   2.033       .  S
O632        C633   1.272       .  A
C633        C774   1.482       .  S
O634       Cr643   2.065       .  S
O634        C642   1.282       .  A
O635       Cr643   1.956       .  S
O635        C636   1.258       .  A
C636        O637   1.280       .  A
C636        C784   1.499       .  S
O637       Cr644   2.062       .  S
O638       Cr644   1.949       .  S
O638        C639   1.254       .  A
C639        O640   1.277       .  A
C639        C807   1.478       .  S
O640       Cr645   2.056       .  S
O641       Cr645   1.945       .  S
O641        C642   1.254       .  A
C642        C814   1.480       .  S
Cr643       O646   1.761       .  S
Cr644       O646   1.752       .  S
Cr645       O646   1.755       .  S
O647        C655   1.275       .  A
O648       Cr665   1.917       .  S
O648        C649   1.241       .  A
C649        O650   1.276       .  A
C649        C747   1.459       .  S
O650       Cr666   2.060       .  S
O651       Cr666   1.941       .  S
O651        C652   1.247       .  A
C652        O653   1.276       .  A
C652        C767   1.480       .  S
O653       Cr667   2.052       .  S
O654       Cr667   1.955       .  S
C655        C787   1.488       .  S
O656       Cr665   1.934       .  S
O656        C664   1.249       .  A
O657        C658   1.271       .  A
C658        C757   1.476       .  S
O659       Cr666   1.959       .  S
O660       Cr666   2.061       .  S
O660        C661   1.280       .  A
C661        O662   1.257       .  A
C661        C777   1.498       .  S
O662       Cr667   1.952       .  S
O663       Cr667   2.058       .  S
O663        C664   1.279       .  A
C664        C734   1.469       .  S
Cr665       O668   1.755       .  S
Cr666       O668   1.750       .  S
Cr667       O668   1.760       .  S
O669       Cr687   2.028       .  S
O669        C677   1.271       .  A
O670       Cr687   1.939       .  S
O670        C671   1.244       .  A
C671        O672   1.271       .  A
C671        C824   1.460       .  S
O672       Cr688   2.056       .  S
O673       Cr688   1.942       .  S
O673        C674   1.252       .  A
C674        O675   1.277       .  A
C674        C754   1.481       .  S
O675       Cr689   2.052       .  S
O676       Cr689   1.952       .  S
O676        C677   1.252       .  A
C677        C727   1.480       .  S
O678       Cr687   1.948       .  S
O678        C686   1.254       .  A
O679       Cr687   2.048       .  S
O679        C680   1.275       .  A
C680        O681   1.252       .  A
C680        C764   1.474       .  S
O681       Cr688   1.948       .  S
O682       Cr688   2.046       .  S
O682        C683   1.277       .  A
C683        O684   1.255       .  A
C683        C717   1.489       .  S
O684       Cr689   1.957       .  S
O685       Cr689   2.057       .  S
O685        C686   1.279       .  A
C686        C817   1.479       .  S
Cr687       O690   1.758       .  S
Cr688       O690   1.759       .  S
Cr689       O690   1.760       .  S
O691        C699   1.252   1_554  A
O692       Cr709   2.059       .  S
O692        C693   1.279       .  A
C693        O694   1.249       .  A
C693        C804   1.490       .  S
O694       Cr710   1.940       .  S
O695       Cr710   2.059       .  S
O695        C696   1.274       .  A
C696        O697   1.245       .  A
C696        C744   1.456       .  S
O697       Cr711   1.924       .  S
O698        C699   1.274       .  A
C699        C714   1.481       .  S
O700       Cr709   2.059       .  S
O700        C708   1.279       .  A
O701       Cr709   1.949       .  S
O701        C702   1.251       .  A
C702        O703   1.277       .  A
C702        C724   1.485       .  S
O703       Cr710   2.043       .  S
O704       Cr710   1.947       .  S
C705        O706   1.272       .  A
C705        C797   1.472       .  S
O707       Cr711   1.931       .  S
O707        C708   1.249       .  A
C708        C737   1.469       .  S
Cr709       O712   1.759       .  S
Cr710       O712   1.754       .  S
Cr711       O712   1.756       .  S
C713        C714   1.398       .  A
C713        C718   1.405       .  A
C713        H720   1.084       .  S
C714        C715   1.416       .  A
C715        C716   1.396       .  A
C716        C717   1.399       .  A
C716        H721   1.084       .  S
C717        C718   1.424       .  A
C718       Br719   1.922       .  S
C723        C724   1.395       .  A
C723        C728   1.391       .  A
C723        H730   1.084       .  S
C724        C725   1.425       .  A
C725        C726   1.405       .  A
C725       Br732   1.922       .  S
C726        C727   1.398       .  A
C726        H731   1.084       .  S
C727        C728   1.415       .  A
C728       Br729   1.908       .  S
C733        C738   1.401   1_545  A
C733        H740   1.084       .  S
C734        C735   1.407       .  A
C735       Br742   1.918       .  S
C736        H741   1.084       .  S
C737        C738   1.407       .  A
C738       Br739   1.918       .  S
C743       C1580   1.393   1_554  A
C743        H750   1.084       .  S
C745       C1370   1.394       .  A
C745       Br752   1.907       .  S
C746       C1369   1.394   1_556  A
C746        C747   1.395   1_655  A
C746        H751   1.084       .  S
C748       C1575   1.393   1_556  A
C748       Br749   1.913       .  S
C753       C1586   1.415   1_455  A
C753        C758   1.403       .  A
C753        H760   1.082       .  S
C754       C1585   1.415       .  A
C754        C755   1.406       .  A
C755       C1588   1.393       .  A
C755       Br762   1.921       .  S
C756       C1587   1.393   1_455  A
C756        C757   1.406       .  A
C756        H761   1.073   1_455  S
C757        C758   1.401       .  A
C758       Br759   1.916       .  S
C763        C764   1.395       .  A
C763        C768   1.399       .  A
C763        H770   1.084       .  S
C764        C765   1.419       .  A
C765       C1598   1.397       .  A
C765      Br1604   1.922       .  S
C766       C1597   1.397       .  A
C766        C767   1.397       .  A
C766        H771   1.084       .  S
C767       C1600   1.423   1_455  A
C768       C1599   1.423       .  A
C768       Br769   1.924       .  S
Br772      C1597   1.922       .  S
C773        C774   1.409       .  A
C773        C778   1.403       .  A
C773        H780   1.084       .  S
C774        C775   1.401       .  A
C775        C776   1.402       .  A
C775       Br782   1.916       .  S
C776        C777   1.417       .  A
C776        H781   1.083       .  S
C777        C778   1.412       .  A
C778       Br779   1.920       .  S
C783        C784   1.417       .  A
C783        C788   1.406       .  A
C783        H790   1.083       .  S
C784        C785   1.411       .  A
C785        C786   1.403       .  A
C785       Br792   1.920       .  S
C786        C787   1.411       .  A
C786        H791   1.084       .  S
C787        C788   1.403       .  A
C788       Br789   1.917       .  S
C793       C1626   1.414       .  A
C793        C798   1.396       .  A
C793        H800   1.084       .  S
C794       C1625   1.414   1_455  A
C794        C795   1.403       .  A
C795       C1628   1.400   1_455  A
C795       Br802   1.917       .  S
C796       C1627   1.400       .  A
C796        C797   1.412       .  A
C796        H801   1.084       .  S
C797        C798   1.399       .  A
C798       Br799   1.918       .  S
C803        C804   1.399       .  A
C803       C1640   1.399       .  A
C803        H810   1.084       .  S
C804       C1637   1.427       .  A
C805       C1636   1.427   1_455  A
C805        C806   1.401       .  A
C805       Br812   1.925       .  S
C806        C807   1.394       .  A
C806        H811   1.084       .  S
C807        C808   1.418   1_455  A
C808       C1635   1.399       .  A
C808      Br1641   1.921       .  S
Br809      C1640   1.921       .  S
C813        C814   1.403       .  A
C813        C818   1.406       .  A
C813        H820   1.084       .  S
C814        C815   1.413       .  A
C815        C816   1.404       .  A
C815       Br822   1.917       .  S
C816        C817   1.401       .  A
C816        H821   1.084       .  S
C817        C818   1.412       .  A
C818       Br819   1.919       .  S
C823        C824   1.407       .  A
C823        C828   1.398       .  A
C823        H830   1.084       .  S
C824       C1657   1.402       .  A
C825       C1656   1.402   1_455  A
C825        C826   1.397       .  A
C825       Br832   1.915       .  S
C826        C827   1.406       .  A
C826        H831   1.084       .  S
C827       C1660   1.402   1_455  A
C828       C1659   1.402       .  A
C828       Br829   1.918       .  S
O833       Cr851   1.955       .  S
O833        C841   1.252       .  A
O834       Cr851   2.061       .  S
O834        C835   1.277       .  A
C835        O836   1.247       .  A
C835       C1002   1.479       .  S
O836       Cr852   1.932       .  S
O837       Cr852   2.058       .  S
O837        C838   1.271       .  A
C838        O839   1.242       .  A
C838       C1035   1.459       .  S
O839       Cr853   1.935       .  S
O840       Cr853   2.033       .  S
O840        C841   1.272       .  A
C841        C982   1.482       .  S
O842       Cr851   2.065       .  S
O842        C850   1.282       .  A
O843       Cr851   1.956       .  S
O843        C844   1.258       .  A
C844        O845   1.280       .  A
C844        C992   1.499       .  S
O845       Cr852   2.062       .  S
O846       Cr852   1.949       .  S
O846        C847   1.254       .  A
C847        O848   1.277       .  A
C847       C1015   1.478       .  S
O848       Cr853   2.056       .  S
O849       Cr853   1.945       .  S
O849        C850   1.254       .  A
C850       C1022   1.480       .  S
Cr851       O854   1.761       .  S
Cr852       O854   1.752       .  S
Cr853       O854   1.755       .  S
O855      Cr1081   2.037   1_554  S
O855        C863   1.275       .  A
O856       Cr873   1.917       .  S
O856        C857   1.241       .  A
C857        O858   1.276       .  A
C857        C955   1.459       .  S
O858       Cr874   2.060       .  S
O859       Cr874   1.941       .  S
O859        C860   1.247       .  A
C860        O861   1.276       .  A
C860        C975   1.480       .  S
O861       Cr875   2.052       .  S
O862       Cr875   1.955       .  S
O862       C1071   1.254       .  A
C863       O1070   1.254   1_554  A
C863        C995   1.488       .  S
O864       Cr873   1.934       .  S
O864        C872   1.249       .  A
O865      Cr1289   2.041       .  S
O865        C866   1.271       .  A
C866       O1283   1.251       .  A
C866        C965   1.476       .  S
O867       Cr874   1.959       .  S
O867       C1282   1.251   1_545  A
O868       Cr874   2.061       .  S
O868        C869   1.280       .  A
C869        O870   1.257       .  A
C869        C985   1.498       .  S
O870       Cr875   1.952       .  S
O871       Cr875   2.058       .  S
O871        C872   1.279       .  A
C872        C942   1.469       .  S
Cr873      O1063   2.037       .  S
Cr873      O1281   2.041   1_545  S
Cr873       O876   1.755       .  S
Cr874       O876   1.751       .  S
Cr875       O876   1.760       .  S
O877       Cr895   2.028       .  S
O877        C885   1.271       .  A
O878       Cr895   1.939       .  S
O878        C879   1.244       .  A
C879        O880   1.271       .  A
C879       C1032   1.460       .  S
O880       Cr896   2.056       .  S
O881       Cr896   1.942       .  S
O881        C882   1.252       .  A
C882        O883   1.277       .  A
C882        C962   1.481       .  S
O883       Cr897   2.051       .  S
O884       Cr897   1.952       .  S
O884        C885   1.252       .  A
C885        C935   1.480       .  S
O886       Cr895   1.948       .  S
O886        C894   1.254       .  A
O887       Cr895   2.048       .  S
O887        C888   1.275       .  A
C888        O889   1.252       .  A
C888        C972   1.474       .  S
O889       Cr896   1.948       .  S
O890       Cr896   2.046       .  S
O890        C891   1.277       .  A
C891        O892   1.255       .  A
C891        C925   1.489       .  S
O892       Cr897   1.957       .  S
O893       Cr897   2.057       .  S
O893        C894   1.279       .  A
C894       C1025   1.479       .  S
Cr895       O898   1.758       .  S
Cr896       O898   1.759       .  S
Cr897       O898   1.760       .  S
O899      Cr1125   1.947       .  S
O899        C907   1.252       .  A
O900       Cr917   2.059       .  S
O900        C901   1.279       .  A
C901        O902   1.249       .  A
C901       C1012   1.490       .  S
O902       Cr918   1.940       .  S
O903       Cr918   2.059       .  S
O903        C904   1.274       .  A
C904        O905   1.245       .  A
C904        C952   1.456       .  S
O905       Cr919   1.924       .  S
O906      Cr1127   2.037       .  S
O906        C907   1.274       .  A
C907        C922   1.481       .  S
O908       Cr917   2.059       .  S
O908        C916   1.279       .  A
O909       Cr917   1.949       .  S
O909        C910   1.251       .  A
C910        O911   1.277       .  A
C910        C932   1.485       .  S
O911       Cr918   2.043       .  S
O912       Cr918   1.947       .  S
O912       C1329   1.250       .  A
C913       O1328   1.250   1_545  A
C913        O914   1.272       .  A
C913       C1005   1.472       .  S
O914      Cr1335   2.039   1_545  S
O915       Cr919   1.931       .  S
O915        C916   1.249       .  A
C916        C945   1.469       .  S
Cr917      O1107   1.947       .  S
Cr917       O920   1.759       .  S
Cr918       O920   1.754       .  S
Cr919      O1114   2.037   1_554  S
Cr919      O1330   2.039       .  S
Cr919       O920   1.756       .  S
C921        C922   1.398       .  A
C921        C926   1.405       .  A
C921        H928   1.084       .  S
C922        C923   1.416       .  A
C923        C924   1.396       .  A
C923      Br1138   1.919       .  S
C924        C925   1.399       .  A
C924        H929   1.084       .  S
C925        C926   1.424       .  A
C926       Br927   1.922       .  S
Br930      C1131   1.919   1_554  S
C931        C932   1.395       .  A
C931        C936   1.391       .  A
C931        H938   1.084       .  S
C932        C933   1.425       .  A
C933        C934   1.405       .  A
C933       Br940   1.922       .  S
C934        C935   1.398       .  A
C934        H939   1.084       .  S
C935        C936   1.415       .  A
C936       Br937   1.908       .  S
C941       C1566   1.404   1_554  A
C941        C946   1.401       .  A
C941        H948   1.084       .  S
C942       C1565   1.404       .  A
C942        C943   1.407       .  A
C943       C1360   1.403   1_545  A
C943       Br950   1.918       .  S
C944       C1359   1.403       .  A
C944       C1153   1.405       .  A
C944        H949   1.084       .  S
C945       C1152   1.405   1_554  A
C945        C946   1.407       .  A
C946       Br947   1.918       .  S
C951       C1160   1.394   1_455  A
C951        H958   1.084       .  S
C952       C1159   1.394   1_655  A
C952       C1369   1.412       .  A
C953       C1368   1.412   1_545  A
C953       Br960   1.907       .  S
C954        C955   1.395       .  A
C954        H959   1.084       .  S
C955       C1372   1.417   1_545  A
C956       C1371   1.417       .  A
C956       Br957   1.913       .  S
C961        C966   1.403       .  A
C961        H968   1.082       .  S
C962        C963   1.406       .  A
C963       Br970   1.921       .  S
C964        C965   1.406       .  A
C964        H969   1.073       .  S
C965        C966   1.401       .  A
C966       Br967   1.916       .  S
C971        C972   1.395       .  A
C971        C976   1.399       .  A
C971        H978   1.084       .  S
C972        C973   1.419   1_655  A
C974        C975   1.397       .  A
C974        H979   1.084       .  S
C976       Br977   1.924       .  S
C981        C982   1.409       .  A
C981        C986   1.403       .  A
C981        H988   1.084       .  S
C982        C983   1.401       .  A
C983        C984   1.402       .  A
C983       Br990   1.916       .  S
C984        C985   1.417       .  A
C984        H989   1.083       .  S
C985        C986   1.412       .  A
C986       Br987   1.920       .  S
C991        C992   1.417       .  A
C991        C996   1.406       .  A
C991        H998   1.083       .  S
C992        C993   1.411       .  A
C993        C994   1.403       .  A
C993      Br1000   1.920       .  S
C994        C995   1.411       .  A
C994        H999   1.084       .  S
C995        C996   1.403       .  A
C996       Br997   1.917       .  S
C1001      C1006   1.396       .  A
C1001      H1008   1.084       .  S
C1002      C1003   1.403       .  A
C1003     Br1010   1.917       .  S
C1004      C1005   1.412       .  A
C1004      H1009   1.084   1_645  S
C1005      C1006   1.399       .  A
C1006     Br1007   1.918       .  S
C1011      C1012   1.399       .  A
C1011      H1018   1.084       .  S
C1013      C1014   1.401       .  A
C1013     Br1020   1.925       .  S
C1014      C1015   1.394       .  A
C1014      H1019   1.084       .  S
C1015      C1016   1.418       .  A
C1021      C1022   1.403       .  A
C1021      C1026   1.406       .  A
C1021      H1028   1.084       .  S
C1022      C1023   1.413       .  A
C1023      C1024   1.404       .  A
C1023     Br1030   1.917       .  S
C1024      C1025   1.401       .  A
C1024      H1029   1.084       .  S
C1025      C1026   1.412       .  A
C1026     Br1027   1.919       .  S
C1031      C1032   1.407       .  A
C1031      C1036   1.398       .  A
C1031      H1038   1.084       .  S
C1033      C1034   1.397       .  A
C1033     Br1040   1.915       .  S
C1034      C1035   1.406       .  A
C1034      H1039   1.084       .  S
C1036     Br1037   1.918       .  S
O1041     Cr1059   1.955       .  S
O1041      C1049   1.252       .  A
O1042     Cr1059   2.061       .  S
O1042      C1043   1.277       .  A
C1043      O1044   1.247       .  A
C1043      C1210   1.479       .  S
O1044     Cr1060   1.932       .  S
O1045     Cr1060   2.058       .  S
O1045      C1046   1.271       .  A
C1046      O1047   1.242       .  A
C1046      C1243   1.459       .  S
O1047     Cr1061   1.935       .  S
O1048     Cr1061   2.033       .  S
O1048      C1049   1.272       .  A
C1049      C1190   1.482       .  S
O1050     Cr1059   2.065       .  S
O1050      C1058   1.282       .  A
O1051     Cr1059   1.956       .  S
O1051      C1052   1.258       .  A
C1052      O1053   1.280       .  A
C1052      C1200   1.499       .  S
O1053     Cr1060   2.062       .  S
O1054     Cr1060   1.949       .  S
O1054      C1055   1.254       .  A
C1055      O1056   1.277       .  A
C1055      C1223   1.478       .  S
O1056     Cr1061   2.056       .  S
O1057     Cr1061   1.945       .  S
O1057      C1058   1.254       .  A
C1058      C1230   1.480       .  S
Cr1059     O1062   1.761       .  S
Cr1060     O1062   1.752       .  S
Cr1061     O1062   1.755       .  S
O1063      C1071   1.275       .  A
O1064     Cr1081   1.917       .  S
O1064      C1065   1.241       .  A
C1065      O1066   1.276       .  A
C1065      C1163   1.459       .  S
O1066     Cr1082   2.060       .  S
O1067     Cr1082   1.941       .  S
O1067      C1068   1.247       .  A
C1068      O1069   1.276       .  A
C1068      C1183   1.480       .  S
O1069     Cr1083   2.052       .  S
O1070     Cr1083   1.955       .  S
C1071      C1203   1.488       .  S
O1072     Cr1081   1.934       .  S
O1072      C1080   1.249       .  A
O1073     Cr1497   2.041       .  S
O1073      C1074   1.271       .  A
C1074      O1491   1.251       .  A
C1074      C1173   1.476       .  S
O1075     Cr1082   1.959       .  S
O1075      C1490   1.251   1_545  A
O1076     Cr1082   2.061       .  S
O1076      C1077   1.280       .  A
C1077      O1078   1.257       .  A
C1077      C1193   1.498       .  S
O1078     Cr1083   1.952       .  S
O1079     Cr1083   2.058       .  S
O1079      C1080   1.279       .  A
C1080      C1150   1.469       .  S
Cr1081     O1489   2.041   1_545  S
Cr1081     O1084   1.755       .  S
Cr1082     O1084   1.751       .  S
Cr1083     O1084   1.760       .  S
O1085     Cr1103   2.028       .  S
O1085      C1093   1.271       .  A
O1086     Cr1103   1.939       .  S
O1086      C1087   1.244       .  A
C1087      O1088   1.271       .  A
C1087      C1240   1.460       .  S
O1088     Cr1104   2.056       .  S
O1089     Cr1104   1.942       .  S
O1089      C1090   1.252       .  A
C1090      O1091   1.277       .  A
C1090      C1170   1.481       .  S
O1091     Cr1105   2.051       .  S
O1092     Cr1105   1.952       .  S
O1092      C1093   1.252       .  A
C1093      C1143   1.480       .  S
O1094     Cr1103   1.948       .  S
O1094      C1102   1.254       .  A
O1095     Cr1103   2.048       .  S
O1095      C1096   1.275       .  A
C1096      O1097   1.252       .  A
C1096      C1180   1.474       .  S
O1097     Cr1104   1.948       .  S
O1098     Cr1104   2.046       .  S
O1098      C1099   1.277       .  A
C1099      O1100   1.255       .  A
C1099      C1133   1.489       .  S
O1100     Cr1105   1.957       .  S
O1101     Cr1105   2.057       .  S
O1101      C1102   1.279       .  A
C1102      C1233   1.479       .  S
Cr1103     O1106   1.758       .  S
Cr1104     O1106   1.759       .  S
Cr1105     O1106   1.760       .  S
O1107      C1115   1.252   1_554  A
O1108     Cr1125   2.059       .  S
O1108      C1109   1.279       .  A
C1109      O1110   1.249       .  A
C1109      C1220   1.490       .  S
O1110     Cr1126   1.940       .  S
O1111     Cr1126   2.059       .  S
O1111      C1112   1.274       .  A
C1112      O1113   1.245       .  A
C1112      C1160   1.456       .  S
O1113     Cr1127   1.924       .  S
O1114      C1115   1.274       .  A
C1115      C1130   1.481       .  S
O1116     Cr1125   2.059       .  S
O1116      C1124   1.279       .  A
O1117     Cr1125   1.949       .  S
O1117      C1118   1.251       .  A
C1118      O1119   1.277       .  A
C1118      C1140   1.485       .  S
O1119     Cr1126   2.043       .  S
O1120     Cr1126   1.947       .  S
O1120      C1537   1.250       .  A
C1121      O1536   1.250   1_545  A
C1121      O1122   1.272       .  A
C1121      C1213   1.472       .  S
O1122     Cr1543   2.039   1_545  S
O1123     Cr1127   1.931       .  S
O1123      C1124   1.249       .  A
C1124      C1153   1.469       .  S
Cr1125     O1128   1.759       .  S
Cr1126     O1128   1.754       .  S
Cr1127     O1538   2.039       .  S
Cr1127     O1128   1.756       .  S
C1129      C1130   1.398       .  A
C1129      C1134   1.405       .  A
C1129      H1136   1.084       .  S
C1130      C1131   1.416       .  A
C1131      C1132   1.396       .  A
C1132      C1133   1.399       .  A
C1132      H1137   1.084       .  S
C1133      C1134   1.424       .  A
C1134     Br1135   1.922       .  S
C1139      C1140   1.395       .  A
C1139      C1144   1.391       .  A
C1139      H1146   1.084       .  S
C1140      C1141   1.425       .  A
C1141      C1142   1.405       .  A
C1141     Br1148   1.922       .  S
C1142      C1143   1.398       .  A
C1142      H1147   1.084       .  S
C1143      C1144   1.415       .  A
C1144     Br1145   1.908       .  S
C1149      C1358   1.404       .  A
C1149      C1154   1.401       .  A
C1149      H1156   1.084       .  S
C1150      C1357   1.404   1_556  A
C1150      C1151   1.407       .  A
C1151      C1568   1.403   1_545  A
C1151     Br1158   1.918       .  S
C1152      C1567   1.403       .  A
C1152      H1157   1.084       .  S
C1153      C1154   1.407       .  A
C1154     Br1155   1.918       .  S
C1159      H1166   1.084       .  S
C1160      C1577   1.412       .  A
C1161      C1576   1.412   1_545  A
C1161     Br1168   1.907       .  S
C1162      C1163   1.395       .  A
C1162      H1167   1.084       .  S
C1163      C1580   1.417   1_545  A
C1164      C1579   1.417       .  A
C1164     Br1165   1.913       .  S
C1169      C1174   1.403       .  A
C1169      H1176   1.082       .  S
C1170      C1171   1.406       .  A
C1171     Br1178   1.921       .  S
C1172      C1173   1.406       .  A
C1172      H1177   1.073       .  S
C1173      C1174   1.401       .  A
C1174     Br1175   1.916       .  S
C1179      C1180   1.395       .  A
C1179      C1184   1.399       .  A
C1179      H1186   1.084       .  S
C1180      C1181   1.419   1_655  A
C1182      C1183   1.397       .  A
C1182      H1187   1.084       .  S
C1184     Br1185   1.924       .  S
C1189      C1190   1.409       .  A
C1189      C1194   1.403       .  A
C1189      H1196   1.084       .  S
C1190      C1191   1.401       .  A
C1191      C1192   1.402       .  A
C1191     Br1198   1.916       .  S
C1192      C1193   1.417       .  A
C1192      H1197   1.083       .  S
C1193      C1194   1.412       .  A
C1194     Br1195   1.920       .  S
C1199      C1200   1.417       .  A
C1199      C1204   1.406       .  A
C1199      H1206   1.083       .  S
C1200      C1201   1.411       .  A
C1201      C1202   1.403       .  A
C1201     Br1208   1.920       .  S
C1202      C1203   1.411       .  A
C1202      H1207   1.084       .  S
C1203      C1204   1.403       .  A
C1204     Br1205   1.917       .  S
C1209      C1214   1.396       .  A
C1209      H1216   1.084       .  S
C1210      C1211   1.403       .  A
C1211     Br1218   1.917       .  S
C1212      C1213   1.412       .  A
C1212      H1217   1.084   1_645  S
C1213      C1214   1.399       .  A
C1214     Br1215   1.918       .  S
C1219      C1220   1.399       .  A
C1219      H1226   1.084       .  S
C1221      C1222   1.401       .  A
C1221     Br1228   1.925       .  S
C1222      C1223   1.394       .  A
C1222      H1227   1.084       .  S
C1223      C1224   1.418       .  A
C1229      C1230   1.403       .  A
C1229      C1234   1.406       .  A
C1229      H1236   1.084       .  S
C1230      C1231   1.413       .  A
C1231      C1232   1.404       .  A
C1231     Br1238   1.917       .  S
C1232      C1233   1.401       .  A
C1232      H1237   1.084       .  S
C1233      C1234   1.412       .  A
C1234     Br1235   1.919       .  S
C1239      C1240   1.407       .  A
C1239      C1244   1.398       .  A
C1239      H1246   1.084       .  S
C1241      C1242   1.397       .  A
C1241     Br1248   1.915       .  S
C1242      C1243   1.406       .  A
C1242      H1247   1.084       .  S
C1244     Br1245   1.918       .  S
O1249     Cr1267   1.955       .  S
O1249      C1257   1.252       .  A
O1250     Cr1267   2.061       .  S
O1250      C1251   1.277       .  A
C1251      O1252   1.247       .  A
C1251      C1418   1.479       .  S
O1252     Cr1268   1.932       .  S
O1253     Cr1268   2.058       .  S
O1253      C1254   1.271       .  A
C1254      O1255   1.242       .  A
C1254      C1451   1.459       .  S
O1255     Cr1269   1.935       .  S
O1256     Cr1269   2.033       .  S
O1256      C1257   1.272       .  A
C1257      C1398   1.482       .  S
O1258     Cr1267   2.065       .  S
O1258      C1266   1.282       .  A
O1259     Cr1267   1.956       .  S
O1259      C1260   1.258       .  A
C1260      O1261   1.280       .  A
C1260      C1408   1.499       .  S
O1261     Cr1268   2.062       .  S
O1262     Cr1268   1.949       .  S
O1262      C1263   1.254       .  A
C1263      O1264   1.277       .  A
C1263      C1431   1.478       .  S
O1264     Cr1269   2.056       .  S
O1265     Cr1269   1.945       .  S
O1265      C1266   1.254       .  A
C1266      C1438   1.480       .  S
Cr1267     O1270   1.761       .  S
Cr1268     O1270   1.752       .  S
Cr1269     O1270   1.755       .  S
O1271     Cr1497   2.037   1_554  S
O1271      C1279   1.275       .  A
O1272     Cr1289   1.917       .  S
O1272      C1273   1.241       .  A
C1273      O1274   1.276       .  A
C1273      C1371   1.459       .  S
O1274     Cr1290   2.060       .  S
O1275     Cr1290   1.941       .  S
O1275      C1276   1.247       .  A
C1276      O1277   1.276       .  A
C1276      C1391   1.480       .  S
O1277     Cr1291   2.052       .  S
O1278     Cr1291   1.955       .  S
O1278      C1487   1.254       .  A
C1279      O1486   1.254   1_554  A
C1279      C1411   1.488       .  S
O1280     Cr1289   1.934       .  S
O1280      C1288   1.249       .  A
O1281      C1282   1.271       .  A
C1282      C1381   1.476       .  S
O1283     Cr1290   1.959       .  S
O1284     Cr1290   2.061       .  S
O1284      C1285   1.280       .  A
C1285      O1286   1.257       .  A
C1285      C1401   1.498       .  S
O1286     Cr1291   1.952       .  S
O1287     Cr1291   2.058       .  S
O1287      C1288   1.279       .  A
C1288      C1358   1.469       .  S
Cr1289     O1479   2.037       .  S
Cr1289     O1292   1.755       .  S
Cr1290     O1292   1.750       .  S
Cr1291     O1292   1.760       .  S
O1293     Cr1311   2.028       .  S
O1293      C1301   1.271       .  A
O1294     Cr1311   1.939       .  S
O1294      C1295   1.244       .  A
C1295      O1296   1.271       .  A
C1295      C1448   1.460       .  S
O1296     Cr1312   2.056       .  S
O1297     Cr1312   1.942       .  S
O1297      C1298   1.252       .  A
C1298      O1299   1.277       .  A
C1298      C1378   1.481       .  S
O1299     Cr1313   2.052       .  S
O1300     Cr1313   1.952       .  S
O1300      C1301   1.252       .  A
C1301      C1351   1.480       .  S
O1302     Cr1311   1.948       .  S
O1302      C1310   1.254       .  A
O1303     Cr1311   2.048       .  S
O1303      C1304   1.275       .  A
C1304      O1305   1.252       .  A
C1304      C1388   1.474       .  S
O1305     Cr1312   1.948       .  S
O1306     Cr1312   2.046       .  S
O1306      C1307   1.277       .  A
C1307      O1308   1.255       .  A
C1307      C1341   1.489       .  S
O1308     Cr1313   1.957       .  S
O1309     Cr1313   2.057       .  S
O1309      C1310   1.279       .  A
C1310      C1441   1.479       .  S
Cr1311     O1314   1.758       .  S
Cr1312     O1314   1.759       .  S
Cr1313     O1314   1.760       .  S
O1315     Cr1541   1.947       .  S
O1315      C1323   1.252       .  A
O1316     Cr1333   2.059       .  S
O1316      C1317   1.279       .  A
C1317      O1318   1.249       .  A
C1317      C1428   1.490       .  S
O1318     Cr1334   1.940       .  S
O1319     Cr1334   2.059       .  S
O1319      C1320   1.274       .  A
C1320      O1321   1.245       .  A
C1320      C1368   1.456       .  S
O1321     Cr1335   1.924       .  S
O1322     Cr1543   2.037       .  S
O1322      C1323   1.274       .  A
C1323      C1338   1.481       .  S
O1324     Cr1333   2.059       .  S
O1324      C1332   1.279       .  A
O1325     Cr1333   1.949       .  S
O1325      C1326   1.251       .  A
C1326      O1327   1.277       .  A
C1326      C1348   1.485       .  S
O1327     Cr1334   2.043       .  S
O1328     Cr1334   1.947       .  S
C1329      O1330   1.272       .  A
C1329      C1421   1.472       .  S
O1331     Cr1335   1.931       .  S
O1331      C1332   1.249       .  A
C1332      C1361   1.469       .  S
Cr1333     O1523   1.947       .  S
Cr1333     O1336   1.759       .  S
Cr1334     O1336   1.754       .  S
Cr1335     O1530   2.037   1_554  S
Cr1335     O1336   1.756       .  S
C1337      C1338   1.398       .  A
C1337      C1342   1.405       .  A
C1337      H1344   1.084       .  S
C1338      C1339   1.416       .  A
C1339      C1340   1.396       .  A
C1339     Br1554   1.919       .  S
C1340      C1341   1.399       .  A
C1340      H1345   1.084       .  S
C1341      C1342   1.424       .  A
C1342     Br1343   1.922       .  S
Br1346     C1547   1.919   1_554  S
C1347      C1348   1.395       .  A
C1347      C1352   1.391       .  A
C1347      H1354   1.084       .  S
C1348      C1349   1.425       .  A
C1349      C1350   1.405       .  A
C1349     Br1356   1.922       .  S
C1350      C1351   1.398       .  A
C1350      H1355   1.084       .  S
C1351      C1352   1.415       .  A
C1352     Br1353   1.908       .  S
C1357      C1362   1.401   1_545  A
C1357      H1364   1.084       .  S
C1358      C1359   1.407       .  A
C1359     Br1366   1.918       .  S
C1360      C1569   1.405       .  A
C1360      H1365   1.084       .  S
C1361      C1568   1.405   1_554  A
C1361      C1362   1.407       .  A
C1362     Br1363   1.918       .  S
C1367      C1576   1.394   1_455  A
C1367      H1374   1.084       .  S
C1368      C1575   1.394   1_655  A
C1369     Br1376   1.907       .  S
C1370      C1371   1.395       .  A
C1370      H1375   1.084       .  S
C1372     Br1373   1.913       .  S
C1377      C1382   1.403       .  A
C1377      H1384   1.082       .  S
C1378      C1379   1.406       .  A
C1379     Br1386   1.921       .  S
C1380      C1381   1.406       .  A
C1380      H1385   1.073       .  S
C1381      C1382   1.401       .  A
C1382     Br1383   1.916       .  S
C1387      C1388   1.395       .  A
C1387      C1392   1.399       .  A
C1387      H1394   1.084       .  S
C1388      C1389   1.419   1_655  A
C1390      C1391   1.397       .  A
C1390      H1395   1.084       .  S
C1392     Br1393   1.924       .  S
C1397      C1398   1.409       .  A
C1397      C1402   1.403       .  A
C1397      H1404   1.084       .  S
C1398      C1399   1.401       .  A
C1399      C1400   1.402       .  A
C1399     Br1406   1.916       .  S
C1400      C1401   1.417       .  A
C1400      H1405   1.083       .  S
C1401      C1402   1.412       .  A
C1402     Br1403   1.920       .  S
C1407      C1408   1.417       .  A
C1407      C1412   1.406       .  A
C1407      H1414   1.083       .  S
C1408      C1409   1.411       .  A
C1409      C1410   1.403       .  A
C1409     Br1416   1.920       .  S
C1410      C1411   1.411       .  A
C1410      H1415   1.084       .  S
C1411      C1412   1.403       .  A
C1412     Br1413   1.917       .  S
C1417      C1422   1.396       .  A
C1417      H1424   1.084       .  S
C1418      C1419   1.403       .  A
C1419     Br1426   1.917       .  S
C1420      C1421   1.412       .  A
C1420      H1425   1.084   1_655  S
C1421      C1422   1.399       .  A
C1422     Br1423   1.918       .  S
C1427      C1428   1.399       .  A
C1427      H1434   1.084       .  S
C1429      C1430   1.401       .  A
C1429     Br1436   1.925       .  S
C1430      C1431   1.394       .  A
C1430      H1435   1.084       .  S
C1431      C1432   1.418       .  A
C1437      C1438   1.403       .  A
C1437      C1442   1.406       .  A
C1437      H1444   1.084       .  S
C1438      C1439   1.413       .  A
C1439      C1440   1.404       .  A
C1439     Br1446   1.917       .  S
C1440      C1441   1.401       .  A
C1440      H1445   1.084       .  S
C1441      C1442   1.412       .  A
C1442     Br1443   1.919       .  S
C1447      C1448   1.407       .  A
C1447      C1452   1.398       .  A
C1447      H1454   1.084       .  S
C1449      C1450   1.397       .  A
C1449     Br1456   1.915       .  S
C1450      C1451   1.406       .  A
C1450      H1455   1.084       .  S
C1452     Br1453   1.918       .  S
O1457     Cr1475   1.955       .  S
O1457      C1465   1.252       .  A
O1458     Cr1475   2.061       .  S
O1458      C1459   1.277       .  A
C1459      O1460   1.247       .  A
C1459      C1626   1.479       .  S
O1460     Cr1476   1.932       .  S
O1461     Cr1476   2.058       .  S
O1461      C1462   1.271       .  A
C1462      O1463   1.242       .  A
C1462      C1659   1.459       .  S
O1463     Cr1477   1.935       .  S
O1464     Cr1477   2.033       .  S
O1464      C1465   1.272       .  A
C1465      C1606   1.482       .  S
O1466     Cr1475   2.065       .  S
O1466      C1474   1.282       .  A
O1467     Cr1475   1.956       .  S
O1467      C1468   1.258       .  A
C1468      O1469   1.280       .  A
C1468      C1616   1.499       .  S
O1469     Cr1476   2.062       .  S
O1470     Cr1476   1.949       .  S
O1470      C1471   1.254       .  A
C1471      O1472   1.277       .  A
C1471      C1639   1.478       .  S
O1472     Cr1477   2.056       .  S
O1473     Cr1477   1.945       .  S
O1473      C1474   1.254       .  A
C1474      C1646   1.480       .  S
Cr1475     O1478   1.761       .  S
Cr1476     O1478   1.752       .  S
Cr1477     O1478   1.755       .  S
O1479      C1487   1.275       .  A
O1480     Cr1497   1.917       .  S
O1480      C1481   1.241       .  A
C1481      O1482   1.276       .  A
C1481      C1579   1.459       .  S
O1482     Cr1498   2.060       .  S
O1483     Cr1498   1.941       .  S
O1483      C1484   1.247       .  A
C1484      O1485   1.276       .  A
C1484      C1599   1.480       .  S
O1485     Cr1499   2.052       .  S
O1486     Cr1499   1.955       .  S
C1487      C1619   1.488       .  S
O1488     Cr1497   1.934       .  S
O1488      C1496   1.249       .  A
O1489      C1490   1.271       .  A
C1490      C1589   1.476       .  S
O1491     Cr1498   1.959       .  S
O1492     Cr1498   2.061       .  S
O1492      C1493   1.280       .  A
C1493      O1494   1.257       .  A
C1493      C1609   1.498       .  S
O1494     Cr1499   1.952       .  S
O1495     Cr1499   2.058       .  S
O1495      C1496   1.279       .  A
C1496      C1566   1.469       .  S
Cr1497     O1500   1.755       .  S
Cr1498     O1500   1.750       .  S
Cr1499     O1500   1.760       .  S
O1501     Cr1519   2.028       .  S
O1501      C1509   1.271       .  A
O1502     Cr1519   1.939       .  S
O1502      C1503   1.244       .  A
C1503      O1504   1.271       .  A
C1503      C1656   1.460       .  S
O1504     Cr1520   2.056       .  S
O1505     Cr1520   1.942       .  S
O1505      C1506   1.252       .  A
C1506      O1507   1.277       .  A
C1506      C1586   1.481       .  S
O1507     Cr1521   2.052       .  S
O1508     Cr1521   1.952       .  S
O1508      C1509   1.252       .  A
C1509      C1559   1.480       .  S
O1510     Cr1519   1.948       .  S
O1510      C1518   1.254       .  A
O1511     Cr1519   2.048       .  S
O1511      C1512   1.275       .  A
C1512      O1513   1.252       .  A
C1512      C1596   1.474       .  S
O1513     Cr1520   1.948       .  S
O1514     Cr1520   2.046       .  S
O1514      C1515   1.277       .  A
C1515      O1516   1.255       .  A
C1515      C1549   1.489       .  S
O1516     Cr1521   1.957       .  S
O1517     Cr1521   2.057       .  S
O1517      C1518   1.279       .  A
C1518      C1649   1.479       .  S
Cr1519     O1522   1.758       .  S
Cr1520     O1522   1.759       .  S
Cr1521     O1522   1.760       .  S
O1523      C1531   1.252   1_554  A
O1524     Cr1541   2.059       .  S
O1524      C1525   1.279       .  A
C1525      O1526   1.249       .  A
C1525      C1636   1.490       .  S
O1526     Cr1542   1.940       .  S
O1527     Cr1542   2.059       .  S
O1527      C1528   1.274       .  A
C1528      O1529   1.245       .  A
C1528      C1576   1.456       .  S
O1529     Cr1543   1.924       .  S
O1530      C1531   1.274       .  A
C1531      C1546   1.481       .  S
O1532     Cr1541   2.059       .  S
O1532      C1540   1.279       .  A
O1533     Cr1541   1.949       .  S
O1533      C1534   1.251       .  A
C1534      O1535   1.277       .  A
C1534      C1556   1.485       .  S
O1535     Cr1542   2.043       .  S
O1536     Cr1542   1.947       .  S
C1537      O1538   1.272       .  A
C1537      C1629   1.472       .  S
O1539     Cr1543   1.931       .  S
O1539      C1540   1.249       .  A
C1540      C1569   1.469       .  S
Cr1541     O1544   1.759       .  S
Cr1542     O1544   1.754       .  S
Cr1543     O1544   1.756       .  S
C1545      C1546   1.398       .  A
C1545      C1550   1.405       .  A
C1545      H1552   1.084       .  S
C1546      C1547   1.416       .  A
C1547      C1548   1.396       .  A
C1548      C1549   1.399       .  A
C1548      H1553   1.084       .  S
C1549      C1550   1.424       .  A
C1550     Br1551   1.922       .  S
C1555      C1556   1.395       .  A
C1555      C1560   1.391       .  A
C1555      H1562   1.084       .  S
C1556      C1557   1.425       .  A
C1557      C1558   1.405       .  A
C1557     Br1564   1.922       .  S
C1558      C1559   1.398       .  A
C1558      H1563   1.084       .  S
C1559      C1560   1.415       .  A
C1560     Br1561   1.908       .  S
C1565      C1570   1.401   1_545  A
C1565      H1572   1.084       .  S
C1566      C1567   1.407       .  A
C1567     Br1574   1.918       .  S
C1568      H1573   1.084       .  S
C1569      C1570   1.407       .  A
C1570     Br1571   1.918       .  S
C1575      H1582   1.084       .  S
C1577     Br1584   1.907       .  S
C1578      C1579   1.395       .  A
C1578      H1583   1.084       .  S
C1580     Br1581   1.913       .  S
C1585      C1590   1.403       .  A
C1585      H1592   1.082       .  S
C1586      C1587   1.406       .  A
C1587     Br1594   1.921       .  S
C1588      C1589   1.406       .  A
C1588      H1593   1.073       .  S
C1589      C1590   1.401       .  A
C1590     Br1591   1.916       .  S
C1595      C1596   1.395       .  A
C1595      C1600   1.399       .  A
C1595      H1602   1.084       .  S
C1596      C1597   1.419   1_655  A
C1598      C1599   1.397       .  A
C1598      H1603   1.084       .  S
C1600     Br1601   1.924       .  S
C1605      C1606   1.409       .  A
C1605      C1610   1.403       .  A
C1605      H1612   1.084       .  S
C1606      C1607   1.401       .  A
C1607      C1608   1.402       .  A
C1607     Br1614   1.916       .  S
C1608      C1609   1.417       .  A
C1608      H1613   1.083       .  S
C1609      C1610   1.412       .  A
C1610     Br1611   1.920       .  S
C1615      C1616   1.417       .  A
C1615      C1620   1.406       .  A
C1615      H1622   1.083       .  S
C1616      C1617   1.411       .  A
C1617      C1618   1.403       .  A
C1617     Br1624   1.920       .  S
C1618      C1619   1.411       .  A
C1618      H1623   1.084       .  S
C1619      C1620   1.403       .  A
C1620     Br1621   1.917       .  S
C1625      C1630   1.396       .  A
C1625      H1632   1.084       .  S
C1626      C1627   1.403       .  A
C1627     Br1634   1.917       .  S
C1628      C1629   1.412       .  A
C1628      H1633   1.084   1_655  S
C1629      C1630   1.399       .  A
C1630     Br1631   1.918       .  S
C1635      C1636   1.399       .  A
C1635      H1642   1.084       .  S
C1637      C1638   1.401       .  A
C1637     Br1644   1.925       .  S
C1638      C1639   1.394       .  A
C1638      H1643   1.084       .  S
C1639      C1640   1.418       .  A
C1645      C1646   1.403       .  A
C1645      C1650   1.406       .  A
C1645      H1652   1.084       .  S
C1646      C1647   1.413       .  A
C1647      C1648   1.404       .  A
C1647     Br1654   1.917       .  S
C1648      C1649   1.401       .  A
C1648      H1653   1.084       .  S
C1649      C1650   1.412       .  A
C1650     Br1651   1.919       .  S
C1655      C1656   1.407       .  A
C1655      C1660   1.398       .  A
C1655      H1662   1.084       .  S
C1657      C1658   1.397       .  A
C1657     Br1664   1.915       .  S
C1658      C1659   1.406       .  A
C1658      H1663   1.084       .  S
C1660     Br1661   1.918       .  S
