geometry optimzed in LAMMPS
_audit_creation_date              2020-12-01 
_audit_creation_method            'lammps2cif' 
_symmetry_space_group_name_H-M    'P1' 
_symmetry_Int_Tables_number       1 
_symmetry_cell_setting            triclinic 
loop_ 
_symmetry_equiv_pos_as_xyz 
  x,y,z 
_cell_length_a                    41.60817042 
_cell_length_b                    24.64806868653349 
_cell_length_c                    85.49688667667029 
_cell_angle_alpha                 90.49292479222336 
_cell_angle_beta                  88.70316379358368 
_cell_angle_gamma                 89.9828316536409 
loop_ 
_atom_site_label 
_atom_site_type_symbol 
_atom_site_fract_x 
_atom_site_fract_y 
_atom_site_fract_z 
_atom_site_charge 
O1          O  0.79727481  0.95834879  0.18227176    -0.71700
O2          O  0.70825109  0.99990917  0.18319330    -0.71900
O3          O  0.75169892  0.97317098  0.20459668    -0.71800
O4          O  0.75379125  0.98964484  0.16109949    -0.71800
O5          O  0.73888713  0.39985845  0.15730252    -0.71700
O6          O  0.73872513  0.38608127  0.20210217    -0.71800
O7          O  0.69617567  0.41479954  0.18052729    -0.71700
O8          O  0.78169438  0.36637205  0.17858655    -0.71900
V9          V  0.75261759  0.97863141  0.18276306     1.35200
V10         V  0.73937548  0.39324366  0.17970270     1.35200
C11         C  0.80534024  0.39785793  0.17988471     0.77500
C12         C  0.68698653  0.96332431  0.18174477     0.77600
C13         C  0.74480668  0.92883183  0.21100522     0.77500
C14         C  0.74554422  0.95193675  0.15207582     0.77400
O15         O  0.68625100  0.41632811  0.30721910    -0.71700
O16         O  0.77351545  0.36601763  0.30541160    -0.71900
O17         O  0.72886195  0.38053243  0.32803821    -0.71800
O18         O  0.73041405  0.39821409  0.28448179    -0.71800
O19         O  0.74793992  0.97783787  0.28718051    -0.71700
O20         O  0.74346987  0.46402335  0.33165143    -0.71800
O21         O  0.78929531  0.44871830  0.30961567    -0.71700
O22         O  0.70281712  0.99118739  0.30978724    -0.71900
V23         V  0.73002741  0.39192871  0.30635734     1.35200
V24         V  0.74618657  0.47132682  0.30923770     1.35200
C25         C  0.68094145  0.95606120  0.30897874     0.77500
C26         C  0.79619692  0.39946232  0.30764815     0.77600
C27         C  0.73622061  0.41805055  0.33737338     0.77500
C28         C  0.74093080  0.44064922  0.27810807     0.77400
O29         O  0.93809672  0.24504254  0.18194512    -0.71700
O30         O  0.02534612  0.19498173  0.18424651    -0.71900
O31         O  0.98021035  0.23006838  0.20477808    -0.71800
O32         O  0.98262295  0.20590932  0.16147792    -0.71800
O33         O  0.00014145  0.28772926  0.15737689    -0.71700
O34         O  0.99715223  0.31261718  0.20171960    -0.71800
O35         O  0.04135514  0.27786611  0.18082001    -0.71700
O36         O  0.95608475  0.32630231  0.17826316    -0.71900
V37         V  0.98188098  0.22058949  0.18302236     1.35200
V38         V  0.99830617  0.29957337  0.17959045     1.35200
C39         C  0.93228350  0.29506396  0.17985804     0.77500
C40         C  0.04824894  0.22886139  0.18298431     0.77600
C41         C  0.98805838  0.27466820  0.21074481     0.77500
C42         C  0.99168192  0.24181735  0.15203779     0.77400
O43         O  0.04027017  0.32886460  0.30621390    -0.71700
O44         O  0.95318822  0.37719299  0.30339865    -0.71900
O45         O  0.99536587  0.36971098  0.32632870    -0.71800
O46         O  0.99845903  0.33968147  0.28321479    -0.71800
O47         O  0.98228609  0.25711099  0.28718955    -0.71700
O48         O  0.97820259  0.28825346  0.33109119    -0.71800
O49         O  0.93720603  0.29439842  0.30741699    -0.71700
O50         O  0.02316686  0.24770306  0.31087838    -0.71900
V51         V  0.99654200  0.35221709  0.30488265     1.35200
V52         V  0.98057044  0.27339740  0.30909326     1.35200
C53         C  0.04664737  0.27941758  0.30876553     0.77500
C54         C  0.93044185  0.34329070  0.30492450     0.77600
C55         C  0.98581875  0.33504011  0.33608897     0.77500
C56         C  0.99129602  0.29387312  0.27777237     0.77400
O57         O  0.44265743  0.52062325  0.18059922    -0.71700
O58         O  0.53158777  0.47874745  0.18135662    -0.71900
O59         O  0.48691212  0.50947977  0.20250159    -0.71800
O60         O  0.48708991  0.48605501  0.15932019    -0.71800
O61         O  0.50004973  0.05567210  0.15534727    -0.71700
O62         O  0.49654871  0.07710884  0.19985985    -0.71800
O63         O  0.54194785  0.05136515  0.17879998    -0.71700
O64         O  0.45451237  0.08594977  0.17647427    -0.71900
V65         V  0.48726364  0.50037853  0.18082065     1.35200
V66         V  0.49793317  0.06596693  0.17764442     1.35200
C67         C  0.43284150  0.05076212  0.17813854     0.77500
C68         C  0.55331432  0.51462626  0.17977277     0.77600
C69         C  0.49115146  0.03671998  0.20869632     0.77500
C70         C  0.49399118  0.52294352  0.14976882     0.77400
O71         O  0.54242645  0.08886715  0.30524673    -0.71700
O72         O  0.45312888  0.12714160  0.30324766    -0.71900
O73         O  0.49629951  0.12011774  0.32583219    -0.71800
O74         O  0.49969916  0.10016299  0.28250748    -0.71800
O75         O  0.48647883  0.01557445  0.28481991    -0.71700
O76         O  0.48309609  0.03580569  0.32935626    -0.71800
O77         O  0.44094048  0.04207976  0.30602254    -0.71700
O78         O  0.52841384  0.00485732  0.30819167    -0.71900
V79         V  0.49768655  0.10736901  0.30426984     1.35200
V80         V  0.48505951  0.02612410  0.30706013     1.35200
C81         C  0.55049485  0.03960802  0.30701984     0.77500
C82         C  0.43188598  0.09015578  0.30410844     0.77600
C83         C  0.48895643  0.08247365  0.33503218     0.77500
C84         C  0.49283604  0.05589254  0.27610294     0.77400
O85         O  0.29623544  0.18660143  0.18037236    -0.71700
O86         O  0.20715687  0.22659845  0.18268371    -0.71900
O87         O  0.25213033  0.20178596  0.20330296    -0.71800
O88         O  0.25171772  0.21547641  0.15979361    -0.71800
O89         O  0.23908645  0.13091879  0.15679359    -0.71700
O90         O  0.23717006  0.11766805  0.20158013    -0.71800
O91         O  0.19466677  0.14190930  0.17977620    -0.71700
O92         O  0.28174443  0.10213676  0.17873839    -0.71900
V93         V  0.25161005  0.20592846  0.18146643     1.35200
V94         V  0.23855910  0.12467656  0.17923983     1.35200
C95         C  0.30385853  0.13679666  0.17938184     0.77500
C96         C  0.18563608  0.19025737  0.18169268     0.77600
C97         C  0.24391242  0.15865331  0.21000312     0.77500
C98         C  0.24484133  0.17693943  0.15073182     0.77400
O99         O  0.18400321  0.13667669  0.30540961    -0.71700
O100        O  0.27361883  0.09612546  0.30390575    -0.71900
O101        O  0.22726073  0.10215632  0.32609534    -0.71800
O102        O  0.22978441  0.12588300  0.28306335    -0.71800
O103        O  0.24284709  0.21032559  0.28647178    -0.71700
O104        O  0.24132858  0.18528656  0.33078856    -0.71800
O105        O  0.28571172  0.18066969  0.30768912    -0.71700
O106        O  0.19864182  0.21952264  0.30980359    -0.71900
V107        V  0.22888882  0.11684218  0.30470038     1.35200
V108        V  0.24179255  0.19738443  0.30861413     1.35200
C109        C  0.17623035  0.18605977  0.30780030     0.77500
C110        C  0.29491855  0.13253174  0.30583080     0.77600
C111        C  0.23436831  0.13830090  0.33585789     0.77500
C112        C  0.23677024  0.17108004  0.27726491     0.77400
O113        O  0.19105430  0.37642824  0.80339506    -0.71700
O114        O  0.28065106  0.33861816  0.80227812    -0.71900
O115        O  0.23435019  0.34315269  0.82444440    -0.71800
O116        O  0.23732547  0.36776023  0.78121323    -0.71800
O117        O  0.24748312  0.45293777  0.78504224    -0.71700
O118        O  0.24934633  0.42557301  0.82905386    -0.71800
O119        O  0.29211107  0.42348776  0.80536624    -0.71700
O120        O  0.20464777  0.45917216  0.80886076    -0.71900
V121        V  0.23599725  0.35805379  0.80293253     1.35200
V122        V  0.24805331  0.43872816  0.80701930     1.35200
C123        C  0.18278593  0.42526263  0.80619929     0.77500
C124        C  0.30179297  0.37544326  0.80358124     0.77600
C125        C  0.24280941  0.37861486  0.83420991     0.77500
C126        C  0.24262583  0.41397619  0.77558743     0.77400
O127        O  0.29179067  0.47007636  0.67953087    -0.71700
O128        O  0.20092209  0.50017267  0.68185855    -0.71900
O129        O  0.24646668  0.47429048  0.70229979    -0.71800
O130        O  0.24634222  0.49972997  0.65902586    -0.71800
O131        O  0.23629328  0.41495664  0.65451393    -0.71700
O132        O  0.23610509  0.38918838  0.69848231    -0.71800
O133        O  0.19187946  0.41509385  0.67754374    -0.71700
O134        O  0.28024303  0.38530217  0.67543602    -0.71900
V135        V  0.24624068  0.48453752  0.68056154     1.35200
V136        V  0.23639065  0.40286274  0.67653102     1.35200
C137        C  0.30112546  0.42130994  0.67757319     0.77500
C138        C  0.18078631  0.46190541  0.68012917     0.77600
C139        C  0.24135357  0.42794953  0.70791951     0.77500
C140        C  0.24047317  0.46251333  0.64931906     0.77400
O141        O  0.55057614  0.33128246  0.80513869    -0.71700
O142        O  0.46231355  0.37684626  0.80253406    -0.71900
O143        O  0.50542976  0.37043570  0.82534679    -0.71800
O144        O  0.50762264  0.34240814  0.78219424    -0.71800
O145        O  0.48874467  0.26134350  0.78588634    -0.71700
O146        O  0.49302729  0.28645498  0.83005287    -0.71800
O147        O  0.44805996  0.29486491  0.80841815    -0.71700
O148        O  0.53352138  0.24888588  0.80769765    -0.71900
V149        V  0.50631652  0.35373615  0.80389559     1.35200
V150        V  0.49124932  0.27444196  0.80794471     1.35200
C151        C  0.55687297  0.28113269  0.80674113     0.77500
C152        C  0.44006758  0.34243930  0.80505545     0.77600
C153        C  0.49923985  0.33380550  0.83508442     0.77500
C154        C  0.49705405  0.29883217  0.77655189     0.77400
O155        O  0.43209885  0.27374566  0.68114353    -0.71700
O156        O  0.51716132  0.21467901  0.68242191    -0.71900
O157        O  0.47478022  0.25337833  0.70346374    -0.71800
O158        O  0.47435160  0.23121891  0.66003570    -0.71800
O159        O  0.49550069  0.31039177  0.65606881    -0.71700
O160        O  0.49338155  0.33494260  0.70040525    -0.71800
O161        O  0.53611752  0.29598037  0.67952711    -0.71700
O162        O  0.45241725  0.35337228  0.67693182    -0.71900
V163        V  0.47482947  0.24493097  0.68165125     1.35200
V164        V  0.49384517  0.32225320  0.67826471     1.35200
C165        C  0.42785715  0.32415942  0.67902895     0.77500
C166        C  0.54123028  0.24616053  0.68151142     0.77600
C167        C  0.48487597  0.29671850  0.70945142     0.77500
C168        C  0.48583147  0.26537898  0.65059102     0.77400
O169        O  0.78687915  0.17983022  0.68032980    -0.71700
O170        O  0.69902839  0.22558048  0.68314919    -0.71900
O171        O  0.74342990  0.19481128  0.70341924    -0.71800
O172        O  0.74263820  0.21449046  0.65999403    -0.71800
O173        O  0.72578661  0.13213369  0.65644544    -0.71700
O174        O  0.72946864  0.11047447  0.70075124    -0.71800
O175        O  0.68437661  0.14172273  0.68073472    -0.71700
O176        O  0.77070951  0.09734720  0.67652270    -0.71900
V177        V  0.74278489  0.20200999  0.68162412     1.35200
V178        V  0.72794919  0.12194524  0.67863428     1.35200
C179        C  0.79363854  0.12996831  0.67839019     0.77500
C180        C  0.67660649  0.19083220  0.68251433     0.77600
C181        C  0.73684806  0.14994651  0.70959775     0.77500
C182        C  0.73297049  0.17817505  0.65080103     0.77400
O183        O  0.68647661  0.12478997  0.80564873    -0.71700
O184        O  0.77206990  0.06688297  0.80414193    -0.71900
O185        O  0.72741919  0.08499678  0.82669737    -0.71800
O186        O  0.73068419  0.10315553  0.78308777    -0.71800
O187        O  0.74814543  0.18560980  0.78584474    -0.71700
O188        O  0.74795335  0.16503024  0.83011936    -0.71800
O189        O  0.79026360  0.14912690  0.80638688    -0.71700
O190        O  0.70633561  0.20488283  0.80953960    -0.71900
V191        V  0.72943806  0.09652816  0.80497145     1.35200
V192        V  0.74777593  0.17457612  0.80794640     1.35200
C193        C  0.68199180  0.17530663  0.80782033     0.77500
C194        C  0.79575957  0.09917389  0.80480055     0.77600
C195        C  0.73765001  0.12090167  0.83587908     0.77500
C196        C  0.73974637  0.14695238  0.77695524     0.77400
O197        O  0.93026230  0.98925506  0.68120396    -0.71700
O198        O  0.02056730  0.44250387  0.68358392    -0.71900
O199        O  0.97465842  0.98160092  0.70338764    -0.71800
O200        O  0.97489726  0.44199466  0.66185045    -0.71800
O201        O  0.98668350  0.04152605  0.65581777    -0.71700
O202        O  0.98814722  0.06564704  0.70009691    -0.71800
O203        O  0.03134247  0.03765713  0.67786599    -0.71700
O204        O  0.94371724  0.07351836  0.67798144    -0.71900
V205        V  0.97537993  0.45864965  0.68333165     1.35200
V206        V  0.98714882  0.05301586  0.67798716     1.35200
C207        C  0.92195646  0.03845620  0.67961508     0.77500
C208        C  0.04082098  0.48042300  0.68134969     0.77600
C209        C  0.98209461  0.02663930  0.70929603     0.77500
C210        C  0.98136276  0.99426618  0.65046524     0.77400
O211        O  0.95259872  0.10069438  0.80381098    -0.71700
O212        O  0.04271823  0.06865668  0.80460761    -0.71900
O213        O  0.99799978  0.07436450  0.78265657    -0.71800
O214        O  0.99766123  0.09885938  0.82594306    -0.71800
O215        O  0.98822025  0.01399544  0.83036512    -0.71700
O216        O  0.98550010  0.98993262  0.78604973    -0.71800
O217        O  0.03174984  0.48296147  0.80893523    -0.71700
O218        O  0.94245575  0.01604033  0.80856577    -0.71900
V219        V  0.99753402  0.08404515  0.80438177     1.35200
V220        V  0.98693143  0.00257721  0.80816209     1.35200
C221        C  0.93221847  0.06286749  0.80572168     0.77500
C222        C  0.05184908  0.01987231  0.80613685     0.77600
C223        C  0.99118068  0.02896646  0.77679914     0.77500
C224        C  0.99346431  0.06136539  0.83568245     0.77400
O225        O  0.78435079  0.25283563  0.55621888    -0.71700
O226        O  0.69556564  0.21166146  0.55296407    -0.71900
O227        O  0.74203191  0.24552695  0.53310505    -0.71800
O228        O  0.73831079  0.21456577  0.57596590    -0.71800
O229        O  0.72422895  0.29698384  0.58157965    -0.71700
O230        O  0.72690791  0.32858295  0.53764294    -0.71800
O231        O  0.68229999  0.29481392  0.55828035    -0.71700
O232        O  0.76875110  0.33517973  0.56107698    -0.71900
V233        V  0.73984036  0.23271765  0.55468618     1.35200
V234        V  0.72591480  0.31231375  0.55956975     1.35200
C235        C  0.79144528  0.30207643  0.55913103     0.77500
C236        C  0.67370627  0.24721593  0.55504245     0.77600
C237        C  0.73499755  0.29142053  0.52793814     0.77500
C238        C  0.73028688  0.24927259  0.58621060     0.77400
O239        O  0.67679386  0.34058138  0.43314371    -0.71700
O240        O  0.76326549  0.39498333  0.43511891    -0.71900
O241        O  0.71996974  0.38381127  0.41253254    -0.71800
O242        O  0.71959969  0.35551445  0.45577076    -0.71800
O243        O  0.73644072  0.27326534  0.45137198    -0.71700
O244        O  0.74034785  0.30470455  0.40757594    -0.71800
O245        O  0.78053259  0.31257361  0.43143150    -0.71700
O246        O  0.69620336  0.26125763  0.42741550    -0.71900
V247        V  0.72017341  0.36722223  0.43403725     1.35200
V248        V  0.73789965  0.28950441  0.42950202     1.35200
C249        C  0.67199513  0.29055824  0.43018244     0.77500
C250        C  0.78659919  0.36187737  0.43373288     0.77600
C251        C  0.73133106  0.35050099  0.40259129     0.77500
C252        C  0.72769317  0.31011851  0.46101544     0.77400
O253        O  0.03407710  0.39895724  0.43061464    -0.71700
O254        O  0.94464410  0.36159013  0.43387706    -0.71900
O255        O  0.98870052  0.36742070  0.41068307    -0.71800
O256        O  0.99054836  0.38921570  0.45384287    -0.71800
O257        O  0.97679090  0.47363302  0.45145888    -0.71700
O258        O  0.97663255  0.45146072  0.40677727    -0.71800
O259        O  0.93276196  0.44617417  0.43026374    -0.71700
O260        O  0.02025837  0.48313016  0.42776908    -0.71900
V261        V  0.98923774  0.38099775  0.43217269     1.35200
V262        V  0.97687762  0.46208751  0.42913550     1.35200
C263        C  0.04212289  0.44815410  0.42858146     0.77500
C264        C  0.92346413  0.39828978  0.43256906     0.77600
C265        C  0.98256116  0.40444299  0.40118124     0.77500
C266        C  0.98386683  0.43403317  0.46018988     0.77400
O267        O  0.92946189  0.43231355  0.55778810    -0.71700
O268        O  0.01774983  0.47810121  0.55626609    -0.71900
O269        O  0.97285737  0.45517480  0.53510064    -0.71800
O270        O  0.97401930  0.45938451  0.57887556    -0.71800
O271        O  0.98763454  0.37433230  0.57971795    -0.71700
O272        O  0.99006504  0.37210388  0.53481817    -0.71800
O273        O  0.03202826  0.39369546  0.55736830    -0.71700
O274        O  0.94578444  0.34874869  0.55713375    -0.71900
V275        V  0.97372738  0.45458298  0.55701864     1.35200
V276        V  0.98848611  0.37376629  0.55725149     1.35200
C277        C  0.92284639  0.38195520  0.55733167     0.77500
C278        C  0.03997719  0.44281435  0.55694449     0.77600
C279        C  0.98197818  0.41415568  0.52737097     0.77500
C280        C  0.98140224  0.41873321  0.58679197     0.77400
O281        O  0.17955186  0.06449920  0.43184272    -0.71700
O282        O  0.26725153  0.11265773  0.43181432    -0.71900
O283        O  0.22185194  0.10232480  0.41038693    -0.71800
O284        O  0.22461121  0.07837815  0.45338849    -0.71800
O285        O  0.24208205  0.99641820  0.44958411    -0.71700
O286        O  0.23723780  0.02007567  0.40541260    -0.71800
O287        O  0.28258784  0.02991307  0.42704592    -0.71700
O288        O  0.19652422  0.98198952  0.42798704    -0.71900
V289        V  0.22354671  0.08776913  0.43176597     1.35200
V290        V  0.23913463  0.00852901  0.42755397     1.35200
C291        C  0.17341732  0.01436996  0.43015357     0.77500
C292        C  0.28988935  0.07878815  0.42943483     0.77600
C293        C  0.22976826  0.06671742  0.40041344     0.77500
C294        C  0.23507749  0.03512947  0.45896239     0.77400
O295        O  0.28639123  0.99656297  0.55692576    -0.71700
O296        O  0.19727783  0.46489727  0.55355173    -0.71900
O297        O  0.24638528  0.97790118  0.53332033    -0.71800
O298        O  0.24082565  0.48102418  0.57562559    -0.71800
O299        O  0.22468531  0.05294341  0.57877760    -0.71700
O300        O  0.23064438  0.06166426  0.53423255    -0.71800
O301        O  0.18428237  0.03774051  0.55509142    -0.71700
O302        O  0.27075600  0.08045437  0.55787042    -0.71900
V303        V  0.24129920  0.48808174  0.55388614     1.35200
V304        V  0.22791572  0.05660006  0.55647445     1.35200
C305        C  0.29345313  0.04662773  0.55783835     0.77500
C306        C  0.17509375  0.50037134  0.55425255     0.77600
C307        C  0.23907087  0.02027086  0.52619619     0.77500
C308        C  0.23320348  0.52063379  0.58427640     0.77400
O309        O  0.42626099  0.19355658  0.55657088    -0.71700
O310        O  0.51357234  0.24374176  0.55339343    -0.71900
O311        O  0.46935333  0.21100007  0.53324721    -0.71800
O312        O  0.47032180  0.23064651  0.57662075    -0.71800
O313        O  0.48874598  0.14953736  0.57982970    -0.71700
O314        O  0.48545242  0.12770710  0.53533399    -0.71800
O315        O  0.52949494  0.16037177  0.55549566    -0.71700
O316        O  0.44428664  0.11185106  0.55966893    -0.71900
V317        V  0.47007380  0.21805230  0.55502854     1.35200
V318        V  0.48647848  0.13881849  0.55756804     1.35200
C319        C  0.42065542  0.14336574  0.55855448     0.77500
C320        C  0.53642968  0.20963462  0.55385209     0.77600
C321        C  0.47790104  0.16729680  0.52672923     0.77500
C322        C  0.48110613  0.19547687  0.58568652     0.77400
O323        O  0.53656435  0.15064752  0.43091477    -0.71700
O324        O  0.44965253  0.09637471  0.43124275    -0.71900
O325        O  0.49587918  0.11226033  0.40950203    -0.71800
O326        O  0.49101459  0.13013631  0.45284922    -0.71800
O327        O  0.47346345  0.21252403  0.45057686    -0.71700
O328        O  0.47766770  0.19325510  0.40593914    -0.71800
O329        O  0.43293825  0.17887782  0.42851480    -0.71700
O330        O  0.51761815  0.23131692  0.42785779    -0.71900
V331        V  0.49299069  0.12396866  0.43107583     1.35200
V332        V  0.47583145  0.20249729  0.42827825     1.35200
C333        C  0.54171534  0.20128399  0.42925748     0.77500
C334        C  0.42634759  0.12929796  0.42985574     0.77600
C335        C  0.48712295  0.14815912  0.40016886     0.77500
C336        C  0.48136476  0.17333737  0.45925652     0.77400
O337        O  0.19079658  0.31274527  0.92953149    -0.71700
O338        O  0.27850652  0.35784877  0.93138601    -0.71900
O339        O  0.23560259  0.34788153  0.90878167    -0.71800
O340        O  0.23347028  0.32566900  0.95220160    -0.71800
O341        O  0.24902106  0.24253614  0.94887188    -0.71700
O342        O  0.25124316  0.26508046  0.90458999    -0.71800
O343        O  0.29337560  0.27442612  0.92763613    -0.71700
O344        O  0.20687902  0.22997486  0.92576375    -0.71900
V345        V  0.23483613  0.33438257  0.93037800     1.35200
V346        V  0.24974496  0.25451539  0.92677003     1.35200
C347        C  0.18395757  0.26301473  0.92767817     0.77500
C348        C  0.30097712  0.32334971  0.92980880     0.77600
C349        C  0.24440302  0.31138477  0.89921041     0.77500
C350        C  0.24110479  0.28100813  0.95813396     0.77400
O351        O  0.29658199  0.24118195  0.05481724    -0.71700
O352        O  0.20927183  0.19258423  0.05199550    -0.71900
O353        O  0.25420443  0.22841971  0.03176183    -0.71800
O354        O  0.25192408  0.20138847  0.07500504    -0.71800
O355        O  0.23712058  0.28406172  0.07977811    -0.71700
O356        O  0.23539657  0.30939198  0.03566838    -0.71800
O357        O  0.19379380  0.27472504  0.05744249    -0.71700
O358        O  0.27888212  0.32306126  0.05815696    -0.71900
V359        V  0.25278255  0.21742207  0.05349114     1.35200
V360        V  0.23674277  0.29626090  0.05770005     1.35200
C361        C  0.30248338  0.29135217  0.05672895     0.77500
C362        C  0.18660798  0.22643704  0.05428632     0.77600
C363        C  0.24412812  0.27216399  0.02614365     0.77500
C364        C  0.24401014  0.23739073  0.08490761     0.77400
O365        O  0.74896682  0.02301346  0.90757058    -0.71700
O366        O  0.74625176  0.51845272  0.95101450    -0.71900
O367        O  0.70317202  0.50529654  0.92848559    -0.71800
O368        O  0.79295181  0.03155351  0.93000377    -0.71800
O369        O  0.78001369  0.11648802  0.93310106    -0.71700
O370        O  0.69146114  0.07660114  0.93288153    -0.71800
O371        O  0.73622618  0.08860618  0.95489084    -0.71700
O372        O  0.73518945  0.10679019  0.91132012    -0.71900
V373        V  0.74618072  0.52871956  0.92895074     1.35200
V374        V  0.73594645  0.09546266  0.93300127     1.35200
C375        C  0.74187508  0.06868859  0.90187532     0.77500
C376        C  0.74334488  0.04382899  0.96090964     0.77600
C377        C  0.68364442  0.02741357  0.93086001     0.77500
C378        C  0.80144034  0.08020401  0.93162416     0.77400
O379        O  0.73386947  0.05918224  0.08185701    -0.71700
O380        O  0.73679222  0.08036709  0.03746916    -0.71900
O381        O  0.69139056  0.05249035  0.05861738    -0.71800
O382        O  0.77873103  0.09043829  0.06068049    -0.71800
O383        O  0.79285119  0.00651852  0.05726491    -0.71700
O384        O  0.70239818  0.46726809  0.05415361    -0.71800
O385        O  0.74604056  0.50078630  0.03292094    -0.71700
O386        O  0.74737428  0.47378679  0.07605025    -0.71900
V387        V  0.73545168  0.06907068  0.05961068     1.35200
V388        V  0.74638675  0.48961090  0.05458432     1.35200
C389        C  0.74025337  0.01270123  0.08727621     0.77500
C390        C  0.74398002  0.04080312  0.02845841     0.77600
C391        C  0.68048799  0.50285080  0.05560677     0.77500
C392        C  0.80083697  0.05572862  0.05916986     0.77400
O393        O  0.48489021  0.45470559  0.95124401    -0.71700
O394        O  0.48838354  0.43982862  0.90659497    -0.71900
O395        O  0.44371430  0.42389513  0.92923932    -0.71800
O396        O  0.52911657  0.47439182  0.92862944    -0.71800
O397        O  0.54683415  0.39246846  0.93117390    -0.71700
O398        O  0.45998167  0.34059572  0.93109104    -0.71800
O399        O  0.50602475  0.35796189  0.90939791    -0.71700
O400        O  0.50146884  0.37161720  0.95300358    -0.71900
V401        V  0.48687679  0.44667563  0.92895721     1.35200
V402        V  0.50328198  0.36730348  0.93111244     1.35200
C403        C  0.49237152  0.41474520  0.95969211     0.77500
C404        C  0.49772366  0.39536101  0.90042219     0.77600
C405        C  0.43699066  0.37421512  0.93017557     0.77500
C406        C  0.55269139  0.44285249  0.93004084     0.77400
O407        O  0.49443611  0.40208258  0.08044353    -0.71700
O408        O  0.49526581  0.37405206  0.03629301    -0.71900
O409        O  0.53751002  0.41015906  0.05710526    -0.71800
O410        O  0.45213249  0.36188722  0.05979502    -0.71800
O411        O  0.43447555  0.44322280  0.05583544    -0.71700
O412        O  0.52187412  0.49277203  0.05302909    -0.71800
O413        O  0.47841163  0.45632524  0.03292607    -0.71700
O414        O  0.47768235  0.48340290  0.07595100    -0.71900
V415        V  0.49439367  0.38853733  0.05835225     1.35200
V416        V  0.47833299  0.46729641  0.05453518     1.35200
C417        C  0.48707666  0.44899253  0.08561565     0.77500
C418        C  0.48724417  0.41163186  0.02710608     0.77600
C419        C  0.54456571  0.45905273  0.05475825     0.77500
C420        C  0.42864123  0.39321670  0.05797069     0.77400
O421        O  0.04795495  0.12265130  0.93093893    -0.71700
O422        O  0.95922009  0.08192623  0.93339118    -0.71900
O423        O  0.00388635  0.08873711  0.91052695    -0.71800
O424        O  0.00333778  0.11252870  0.95388760    -0.71800
O425        O  0.98639710  0.19478745  0.95098631    -0.71700
O426        O  0.99287439  0.17346069  0.90649567    -0.71800
O427        O  0.94632168  0.16524743  0.92840650    -0.71700
O428        O  0.03309686  0.20666358  0.92896277    -0.71900
V429        V  0.00341751  0.10310361  0.93210987     1.35200
V430        V  0.99005701  0.18356648  0.92876982     1.35200
C431        C  0.05542693  0.17237506  0.92977061     0.77500
C432        C  0.93770560  0.11729078  0.93113421     0.77600
C433        C  0.99835801  0.12617436  0.90104562     0.77500
C434        C  0.99362089  0.15630172  0.96004395     0.77400
O435        O  0.99844887  0.13304964  0.08114920    -0.71700
O436        O  0.99485799  0.11652899  0.03662683    -0.71900
O437        O  0.04011828  0.14150914  0.05709478    -0.71800
O438        O  0.95292761  0.10443270  0.06061424    -0.71800
O439        O  0.93896090  0.18863385  0.05804110    -0.71700
O440        O  0.02804992  0.22664708  0.05555178    -0.71800
O441        O  0.98276910  0.20159259  0.03493868    -0.71700
O442        O  0.98404030  0.21727282  0.07864873    -0.71900
V443        V  0.99623282  0.12546745  0.05885951     1.35200
V444        V  0.98366223  0.20691304  0.05686111     1.35200
C445        C  0.99220580  0.17895878  0.08731896     0.77500
C446        C  0.98867083  0.15704620  0.02814603     0.77600
C447        C  0.04935403  0.18986328  0.05578054     0.77500
C448        C  0.93096372  0.13926613  0.05956392     0.77400
C449        C  0.98919107  0.20482786  0.00270977    -0.05700
C450        C  0.98882828  0.15484306  0.01068814     0.00200
C451        C  0.98819353  0.10601733  0.00182583    -0.08300
C452        C  0.98910894  0.10935511  0.98542117    -0.05700
C453        C  0.99043881  0.15923004  0.97744627     0.00200
C454        C  0.98971170  0.20809292  0.98627194    -0.08300
C455        C  0.98979216  0.26345314  0.97858289     0.62100
H456        H  0.98932137  0.24205768  0.00950089     0.12800
H457        H  0.98887559  0.07215358  0.97861314     0.12800
C458        C  0.98627293  0.05045776  0.00939775     0.62400
F459        F  0.99052614  0.30535975  0.98946220    -0.22800
F460        F  0.96220552  0.26949167  0.97003594    -0.20100
F461        F  0.01657139  0.26851065  0.96882137    -0.19800
F462        F  0.95978338  0.04819584  0.01945019    -0.19900
F463        F  0.01397010  0.04071803  0.01756750    -0.20200
F464        F  0.98321390  0.00912781  0.99845928    -0.22900
C465        C  0.51324917  0.38413856  0.98491018    -0.05700
C466        C  0.49082308  0.41614101  0.97699515     0.00200
C467        C  0.46618315  0.44318178  0.98564469    -0.08300
C468        C  0.46511929  0.43749247  0.00193807    -0.05700
C469        C  0.48787086  0.40648080  0.00988547     0.00200
C470        C  0.51233259  0.37887104  0.00127690    -0.08300
C471        C  0.53773909  0.34525551  0.00922942     0.62100
H472        H  0.53177786  0.36325192  0.97810043     0.12800
H473        H  0.44649104  0.45821609  0.00872832     0.12800
C474        C  0.44052248  0.47651522  0.97782742     0.62400
F475        F  0.56012586  0.32412038  0.99860725    -0.22800
F476        F  0.52327802  0.30230426  0.01694289    -0.20100
F477        F  0.55400921  0.37705312  0.01985065    -0.19800
F478        F  0.42506907  0.44467130  0.96698059    -0.19900
F479        F  0.45441623  0.52072156  0.97048360    -0.20200
F480        F  0.41754330  0.49583146  0.98844204    -0.22900
C481        C  0.62737903  0.51461579  0.04373233    -0.05700
C482        C  0.64608408  0.48917756  0.05504544     0.00200
C483        C  0.63113879  0.45638207  0.06653554    -0.08300
C484        C  0.59772374  0.44941208  0.06617163    -0.05700
C485        C  0.57889151  0.47429184  0.05481262     0.00200
C486        C  0.59380789  0.50721239  0.04328743    -0.08300
C487        C  0.57463887  0.53295147  0.03040254     0.62100
H488        H  0.63938853  0.54035647  0.03521898     0.12800
H489        H  0.58588947  0.42415179  0.07485406     0.12800
C490        C  0.65239421  0.91320020  0.07480478     0.62400
F491        F  0.59431365  0.55914456  0.01959741    -0.22800
F492        F  0.55344438  0.57066848  0.03681004    -0.20100
F493        F  0.55756580  0.49350869  0.02252867    -0.19800
F494        F  0.67003333  0.94378163  0.08518879    -0.19900
F495        F  0.67300179  0.88153835  0.06568790    -0.20200
F496        F  0.63273542  0.87880020  0.08344084    -0.22900
C497        C  0.84078736  0.12438401  0.06706601    -0.05700
C498        C  0.83481392  0.07427696  0.05958454     0.00200
C499        C  0.86061750  0.04657260  0.05190037    -0.08300
C500        C  0.89136858  0.07010804  0.05213412    -0.05700
C501        C  0.89718179  0.12033764  0.05948549     0.00200
C502        C  0.87147562  0.14823514  0.06706290    -0.08300
C503        C  0.87632547  0.20223401  0.07534845     0.62100
H504        H  0.82095107  0.14530477  0.07289145     0.12800
H505        H  0.91136823  0.04939075  0.04637023     0.12800
C506        C  0.85596585  0.99332067  0.04313946     0.62400
F507        F  0.84874103  0.21954886  0.08326514    -0.22800
F508        F  0.88477085  0.24143058  0.06454444    -0.20100
F509        F  0.90035059  0.19747254  0.08613049    -0.19800
F510        F  0.83272546  0.99947502  0.03196694    -0.19900
F511        F  0.84670478  0.95327678  0.05353681    -0.20200
F512        F  0.88392671  0.97612108  0.03552691    -0.22900
C513        C  0.85439076  0.06748596  0.94311901    -0.05700
C514        C  0.83582568  0.09291845  0.93180343     0.00200
C515        C  0.85071830  0.12475369  0.92009148    -0.08300
C516        C  0.88429179  0.13010533  0.92007706    -0.05700
C517        C  0.90305623  0.10474428  0.93139614     0.00200
C518        C  0.88796681  0.07366758  0.94330898    -0.08300
C519        C  0.90685862  0.04925569  0.95651073     0.62100
H520        H  0.84227874  0.04300681  0.95184156     0.12800
H521        H  0.89619721  0.15422953  0.91121399     0.12800
C522        C  0.83130111  0.15150997  0.90744555     0.62400
F523        F  0.92414803  0.08951235  0.96392177    -0.22800
F524        F  0.92774030  0.01011950  0.95062070    -0.20100
F525        F  0.88693849  0.02508806  0.96761062    -0.19800
F526        F  0.85071896  0.17858408  0.89672306    -0.19900
F527        F  0.81018463  0.18874440  0.91416551    -0.20200
F528        F  0.81410597  0.11257279  0.89943422    -0.22900
C529        C  0.59048055  0.51878964  0.92431003    -0.05700
C530        C  0.58586421  0.46609344  0.93035482     0.00200
C531        C  0.61230059  0.43926618  0.93707933    -0.08300
C532        C  0.64231033  0.46551497  0.93705029    -0.05700
C533        C  0.64696034  0.51778291  0.93090796     0.00200
C534        C  0.62053252  0.54527189  0.92449188    -0.08300
C535        C  0.62409365  0.60133346  0.91740940     0.62100
H536        H  0.57024047  0.53927864  0.91928559     0.12800
H537        H  0.66072615  0.93969484  0.94393928     0.12800
C538        C  0.60920372  0.38366713  0.94451720     0.62400
F539        F  0.59590749  0.61885480  0.91077626    -0.22800
F540        F  0.64784906  0.60048547  0.90581997    -0.20100
F541        F  0.63214920  0.63842779  0.92889339    -0.19800
F542        F  0.60225263  0.34529767  0.93319401    -0.19900
F543        F  0.58506029  0.38453399  0.95591579    -0.20200
F544        F  0.63086933  0.86661165  0.95354868    -0.22900
C545        C  0.75431293  0.08750413  0.98629868    -0.05700
C546        C  0.74494372  0.04033772  0.97815317     0.00200
C547        C  0.72989916  0.50652951  0.98535892    -0.08300
C548        C  0.72930684  0.50753658  0.00175798    -0.05700
C549        C  0.74412816  0.04403784  0.01119596     0.00200
C550        C  0.75472779  0.08991977  0.00272928    -0.08300
C551        C  0.76774009  0.14010220  0.01085199     0.62100
H552        H  0.76171042  0.12263835  0.97962058     0.12800
H553        H  0.72132176  0.47194322  0.00804713     0.12800
C554        C  0.71887650  0.45573160  0.97683558     0.62400
F555        F  0.77982304  0.17751813  0.00025970    -0.22800
F556        F  0.79242033  0.12551915  0.02055818    -0.20100
F557        F  0.74354807  0.16513870  0.01959175    -0.19800
F558        F  0.74446215  0.43293149  0.96852944    -0.19900
F559        F  0.69466713  0.46875635  0.96671675    -0.20200
F560        F  0.70698810  0.41689889  0.98704072    -0.22900
C561        C  0.13154593  0.25507089  0.04876142    -0.05700
C562        C  0.15209610  0.21289878  0.05331109     0.00200
C563        C  0.13881203  0.16325704  0.05839283    -0.08300
C564        C  0.10519670  0.15807602  0.05893736    -0.05700
C565        C  0.08447209  0.20081618  0.05478819     0.00200
C566        C  0.09794213  0.25051071  0.04962651    -0.08300
C567        C  0.07748534  0.29894217  0.04521285     0.62100
H568        H  0.14221271  0.29276344  0.04482765     0.12800
H569        H  0.09485379  0.12024458  0.06292553     0.12800
C570        C  0.15972750  0.11661604  0.06366846     0.62400
F571        F  0.09597546  0.34210408  0.03997036    -0.22800
F572        F  0.05980196  0.31678208  0.05815740    -0.20100
F573        F  0.05701783  0.28450608  0.03334969    -0.19800
F574        F  0.17935589  0.13390347  0.07557183    -0.19900
F575        F  0.17845002  0.09789826  0.05118582    -0.20200
F576        F  0.14160077  0.07352130  0.06924241    -0.22900
C577        C  0.33828560  0.36868422  0.06297999    -0.05700
C578        C  0.33556245  0.31482496  0.05733035     0.00200
C579        C  0.36369084  0.28765217  0.05181595    -0.08300
C580        C  0.39323483  0.31541631  0.05225319    -0.05700
C581        C  0.39578788  0.36934598  0.05772234     0.00200
C582        C  0.36776349  0.39667119  0.06315482    -0.08300
C583        C  0.36876104  0.45461670  0.06933815     0.62100
H584        H  0.31686249  0.38936038  0.06722182     0.12800
H585        H  0.41483082  0.29509251  0.04806663     0.12800
C586        C  0.36287036  0.23028790  0.04517050     0.62400
F587        F  0.33912671  0.47160971  0.07523617    -0.22800
F588        F  0.37767656  0.48930604  0.05738161    -0.20100
F589        F  0.39059082  0.45855746  0.08126120    -0.19800
F590        F  0.34226381  0.22804572  0.03270466    -0.19900
F591        F  0.35262431  0.19463324  0.05664724    -0.20200
F592        F  0.39285224  0.21315276  0.03978440    -0.22900
C593        C  0.35738582  0.30471219  0.92166003    -0.05700
C594        C  0.33557797  0.33824896  0.93012096     0.00200
C595        C  0.34754801  0.38272466  0.93883492    -0.08300
C596        C  0.38090065  0.39186384  0.93865775    -0.05700
C597        C  0.40267608  0.35795144  0.93040255     0.00200
C598        C  0.39076711  0.31403108  0.92151445    -0.08300
C599        C  0.41286248  0.27874875  0.91135378     0.62100
H600        H  0.34799148  0.27113263  0.91493548     0.12800
H601        H  0.39027507  0.42650005  0.94486580     0.12800
C602        C  0.32564758  0.42008516  0.94848688     0.62400
F603        F  0.39581609  0.24287469  0.90215174    -0.22800
F604        F  0.43279340  0.24885623  0.92071207    -0.20100
F605        F  0.43130687  0.31099344  0.90148498    -0.19800
F606        F  0.30703119  0.38991609  0.95882598    -0.19900
F607        F  0.30597226  0.44883634  0.93870914    -0.20200
F608        F  0.34286958  0.45730905  0.95715876    -0.22900
C609        C  0.14435808  0.19307145  0.92000140    -0.05700
C610        C  0.15036130  0.24218463  0.92800884     0.00200
C611        C  0.12521018  0.26646243  0.93711547    -0.08300
C612        C  0.09492986  0.24115977  0.93754217    -0.05700
C613        C  0.08903658  0.19217749  0.92957275     0.00200
C614        C  0.11416944  0.16724943  0.92072050    -0.08300
C615        C  0.10924865  0.11404602  0.91199208     0.62100
H616        H  0.16378376  0.17454760  0.91322449     0.12800
H617        H  0.07533804  0.25956357  0.94424251     0.22400
C618        C  0.13015850  0.31784133  0.94672677     0.62400
F619        F  0.13598826  0.09967315  0.90295363    -0.22800
F620        F  0.08347653  0.11820010  0.90216131    -0.20100
F621        F  0.10337041  0.07302519  0.92260327    -0.19800
F622        F  0.13651851  0.36093883  0.93688399    -0.19900
F623        F  0.15552476  0.31082939  0.95670362    -0.20200
F624        F  0.10325085  0.33103170  0.95580609    -0.22900
C625        C  0.24066848  0.32537044  0.98426565    -0.05700
C626        C  0.24126369  0.27646976  0.97553530     0.00200
C627        C  0.24154955  0.22655482  0.98364529    -0.08300
C628        C  0.24198276  0.22785250  0.00009476    -0.05700
C629        C  0.24208594  0.27675934  0.00880189     0.00200
C630        C  0.24095249  0.32661739  0.00072161    -0.08300
C631        C  0.24056676  0.38104302  0.00921660     0.62100
H632        H  0.24026675  0.36338168  0.97804642     0.12800
H633        H  0.24228948  0.18988476  0.00634397     0.12800
C634        C  0.24110605  0.17198193  0.97521405     0.62400
F635        F  0.24170525  0.42418572  0.99895197    -0.22800
F636        F  0.26694892  0.38507541  0.01871738    -0.20100
F637        F  0.21260596  0.38598926  0.01817730    -0.19800
F638        F  0.26920333  0.16526359  0.96645970    -0.19900
F639        F  0.21493525  0.16925791  0.96553645    -0.20200
F640        F  0.23878788  0.12907015  0.98552707    -0.22900
C641        C  0.48951419  0.21417389  0.50192447    -0.05700
C642        C  0.47983768  0.16589893  0.50942830     0.00200
C643        C  0.47042968  0.12080939  0.50033133    -0.08300
C644        C  0.46992149  0.12646691  0.48400751    -0.05700
C645        C  0.47927010  0.17487124  0.47652103     0.00200
C646        C  0.48990961  0.21925961  0.48556202    -0.08300
C647        C  0.50283983  0.27065971  0.47803039     0.62100
H648        H  0.49712362  0.24813465  0.50906129     0.12800
H649        H  0.46259050  0.09240099  0.47685239     0.12800
C650        C  0.46071091  0.06732624  0.50771357     0.62400
F651        F  0.51479128  0.30660560  0.48899013    -0.22800
F652        F  0.47855052  0.29655658  0.47023263    -0.20100
F653        F  0.52756989  0.25783088  0.46754524    -0.19800
F654        F  0.43588982  0.07572345  0.51848452    -0.19900
F655        F  0.48676795  0.04508328  0.51510989    -0.20200
F656        F  0.45036833  0.03008015  0.49670676    -0.22900
C657        C  0.38347887  0.06989764  0.55107159    -0.05700
C658        C  0.38776504  0.11976207  0.55891186     0.00200
C659        C  0.36159408  0.14285104  0.56744779    -0.08300
C660        C  0.33162267  0.11625709  0.56720914    -0.05700
C661        C  0.32700112  0.06730525  0.55888637     0.00200
C662        C  0.35354289  0.04325225  0.55080304    -0.08300
C663        C  0.35028039  0.99081592  0.54151089     0.62100
H664        H  0.40396752  0.05206740  0.54491780     0.12800
H665        H  0.31125346  0.13403253  0.57348180     0.12800
C666        C  0.36541975  0.19432618  0.57710290     0.62400
F667        F  0.37856205  0.97698191  0.53360900    -0.22800
F668        F  0.32656780  0.99632774  0.53054744    -0.20100
F669        F  0.34242334  0.94883654  0.55151855    -0.19800
F670        F  0.37169774  0.23762637  0.56733514    -0.19900
F671        F  0.39053037  0.18831969  0.58728827    -0.20200
F672        F  0.33794044  0.20629739  0.58590308    -0.22900
C673        C  0.34549880  0.05798846  0.43706020    -0.05700
C674        C  0.32441217  0.09384916  0.42969087     0.00200
C675        C  0.33710285  0.13946060  0.42179975    -0.08300
C676        C  0.37053895  0.14812117  0.42189016    -0.05700
C677        C  0.39178570  0.11287046  0.42951486     0.00200
C678        C  0.37899919  0.06663836  0.43719319    -0.08300
C679        C  0.40020710  0.02727028  0.44580430     0.62100
H680        H  0.33530891  0.02279577  0.44286139     0.12800
H681        H  0.38041629  0.18312627  0.41588816     0.12800
C682        C  0.31567888  0.17777644  0.41288728     0.62400
F683        F  0.38246372  0.98710473  0.45321863    -0.22800
F684        F  0.41721645  0.05486897  0.45707798    -0.20100
F685        F  0.42138418  0.00226108  0.43533478    -0.19800
F686        F  0.29488882  0.20437378  0.42320333    -0.19900
F687        F  0.29811509  0.14877648  0.40209986    -0.20200
F688        F  0.33329723  0.21666585  0.40485392    -0.22900
C689        C  0.23479490  0.98047036  0.48304111    -0.05700
C690        C  0.23877792  0.03123503  0.47606697     0.00200
C691        C  0.24537683  0.07751307  0.48557457    -0.08300
C692        C  0.24560665  0.07144857  0.50183759    -0.05700
C693        C  0.24025512  0.02122296  0.50889641     0.00200
C694        C  0.23546282  0.97427942  0.49936240    -0.08300
C695        C  0.21982819  0.43214919  0.50514386     0.62100
H696        H  0.23032124  0.94577016  0.47556877     0.12800
H697        H  0.24974396  0.10644293  0.50925241     0.12800
C698        C  0.25241716  0.13342024  0.47885611     0.62400
F699        F  0.21034712  0.39547149  0.49378705    -0.22800
F700        F  0.19471002  0.43779378  0.51591184    -0.20100
F701        F  0.24626368  0.41033404  0.51234041    -0.19800
F702        F  0.22445560  0.15605015  0.47337780    -0.19900
F703        F  0.27511383  0.12941696  0.46682466    -0.20200
F704        F  0.26450183  0.16861292  0.48998442    -0.22900
C705        C  0.08457583  0.50188061  0.54783151    -0.05700
C706        C  0.07461045  0.45748604  0.55683122     0.00200
C707        C  0.09799772  0.42680284  0.56489836    -0.08300
C708        C  0.13059701  0.44141135  0.56333189    -0.05700
C709        C  0.14052006  0.48571732  0.55431584     0.00200
C710        C  0.11718044  0.51660568  0.54634485    -0.08300
C711        C  0.13374913  0.03725488  0.52930863     0.62100
H712        H  0.07140346  0.00890881  0.53554080     0.12800
H713        H  0.14871468  0.41874323  0.56940788     0.12800
C714        C  0.08892392  0.37965414  0.57549455     0.62400
F715        F  0.10999824  0.05095925  0.51896439    -0.22800
F716        F  0.15806076  0.01112673  0.52090256    -0.20100
F717        F  0.14555569  0.08473605  0.53568281    -0.19800
F718        F  0.07908444  0.33588133  0.56658786    -0.19900
F719        F  0.06444117  0.39507442  0.58581900    -0.20200
F720        F  0.11458547  0.36271975  0.58426623    -0.22900
C721        C  0.09676684  0.44862147  0.43935955    -0.05700
C722        C  0.07605307  0.46596483  0.42770781     0.00200
C723        C  0.09073681  0.98056746  0.41561962    -0.08300
C724        C  0.12186683  0.00213830  0.41692586    -0.05700
C725        C  0.14018469  0.99324129  0.43018413     0.00200
C726        C  0.12835747  0.46865313  0.44028783    -0.08300
C727        C  0.14984077  0.44968944  0.45328236     0.62100
H728        H  0.08770518  0.42008051  0.44797629     0.12800
H729        H  0.13224369  0.02626741  0.40753598     0.12800
C730        C  0.07183554  0.99102314  0.40094968     0.62400
F731        F  0.13330269  0.41778039  0.46400951    -0.22800
F732        F  0.15497665  0.00015670  0.46383822    -0.20100
F733        F  0.17501245  0.41938896  0.44699541    -0.19800
F734        F  0.04704229  0.02691009  0.40429895    -0.19900
F735        F  0.05927378  0.94282455  0.39535784    -0.20200
F736        F  0.09096052  0.01314849  0.38918625    -0.22900
C737        C  0.00868470  0.40576205  0.48457192    -0.05700
C738        C  0.98463568  0.43663467  0.47746865     0.00200
C739        C  0.95967364  0.45962915  0.48683015    -0.08300
C740        C  0.95946955  0.44998154  0.50303914    -0.05700
C741        C  0.98302767  0.41771906  0.51007445     0.00200
C742        C  0.00831888  0.39554872  0.50071365    -0.08300
C743        C  0.03504459  0.36195682  0.50763042     0.62100
H744        H  0.02753768  0.38825932  0.47718596     0.12800
H745        H  0.94055076  0.46735431  0.51040235     0.12800
C746        C  0.93298854  0.49279406  0.47976100     0.62400
F747        F  0.05832369  0.34773602  0.49650884    -0.22800
F748        F  0.02242924  0.31459987  0.51377061    -0.20100
F749        F  0.04987478  0.39124673  0.51930557    -0.19800
F750        F  0.91756050  0.46250156  0.46850325    -0.19900
F751        F  0.94585355  0.53890571  0.47298619    -0.20200
F752        F  0.91018455  0.50885691  0.49090381    -0.22900
C753        C  0.83999768  0.34763260  0.44464284    -0.05700
C754        C  0.82067023  0.37784064  0.43462059     0.00200
C755        C  0.83523333  0.41359703  0.42376970    -0.08300
C756        C  0.86890108  0.41859271  0.42354361    -0.05700
C757        C  0.88839305  0.38761636  0.43335803     0.00200
C758        C  0.87375766  0.35145812  0.44414453    -0.08300
C759        C  0.89342031  0.31700576  0.45503839     0.62100
H760        H  0.82828862  0.31934325  0.45256131     0.12800
H761        H  0.88043488  0.44604886  0.41533263     0.12800
C762        C  0.81550486  0.44393714  0.41194419     0.62400
F763        F  0.87411379  0.28825919  0.46544146    -0.22800
F764        F  0.91359355  0.34961817  0.46365693    -0.20100
F765        F  0.91155182  0.28004086  0.44636607    -0.19800
F766        F  0.79408991  0.47833581  0.41965437    -0.19900
F767        F  0.79866588  0.40733612  0.40292843    -0.20200
F768        F  0.83460621  0.47477609  0.40197074    -0.22900
C769        C  0.61327277  0.30048960  0.42661874    -0.05700
C770        C  0.63904790  0.26633210  0.42992951     0.00200
C771        C  0.63273012  0.21036587  0.43288840    -0.08300
C772        C  0.60077258  0.19145609  0.43252250    -0.05700
C773        C  0.57486770  0.22552329  0.42914421     0.00200
C774        C  0.58138269  0.28147355  0.42590688    -0.08300
C775        C  0.55540169  0.32176895  0.42148534     0.62100
H776        H  0.61852052  0.34285612  0.42432713     0.12800
H777        H  0.59576749  0.14905884  0.43486212     0.12800
C778        C  0.65921773  0.17016935  0.43661373     0.62400
F779        F  0.56793096  0.37226487  0.41782662    -0.22800
F780        F  0.53382471  0.32897328  0.43387790    -0.20100
F781        F  0.53954875  0.30305654  0.40844756    -0.19800
F782        F  0.67700869  0.18939954  0.44896156    -0.19900
F783        F  0.67902995  0.16238822  0.42357524    -0.20200
F784        F  0.64706788  0.11995936  0.44083853    -0.22900
C785        C  0.59171879  0.18710940  0.54512858    -0.05700
C786        C  0.57088822  0.22442701  0.55274462     0.00200
C787        C  0.58392927  0.26915384  0.56082996    -0.08300
C788        C  0.61753592  0.27420662  0.56125275    -0.05700
C789        C  0.63858924  0.23609157  0.55400959     0.00200
C790        C  0.62539666  0.19184385  0.54563708    -0.08300
C791        C  0.64634476  0.14963713  0.53731297     0.62100
H792        H  0.58121956  0.15299986  0.53903686     0.12800
H793        H  0.62763995  0.30802535  0.56761086     0.12800
C794        C  0.56269188  0.31004440  0.56955159     0.62400
F795        F  0.62830458  0.11247128  0.52902961    -0.22800
F796        F  0.66370145  0.12128648  0.54817150    -0.20100
F797        F  0.66718753  0.17470033  0.52681395    -0.19800
F798        F  0.54366416  0.28370035  0.58057020    -0.19900
F799        F  0.54335481  0.33649498  0.55910712    -0.20200
F800        F  0.58050218  0.34893628  0.57728384    -0.22900
C801        C  0.86643584  0.38734220  0.56705175    -0.05700
C802        C  0.88929447  0.36131958  0.55735497     0.00200
C803        C  0.88004423  0.31505122  0.54845567    -0.08300
C804        C  0.84819475  0.29606400  0.54984903    -0.05700
C805        C  0.82521731  0.32208900  0.55952725     0.00200
C806        C  0.83451694  0.36859491  0.56840888    -0.08300
C807        C  0.81137794  0.39831219  0.57955339     0.62100
H808        H  0.87395853  0.42231537  0.57372603     0.12800
H809        H  0.84082448  0.26116295  0.54310722     0.12800
C810        C  0.90323600  0.28629351  0.53715285     0.62400
F811        F  0.82708129  0.43546348  0.58891709    -0.22800
F812        F  0.79597270  0.36161053  0.58931255    -0.20100
F813        F  0.78890706  0.42650999  0.57114584    -0.19800
F814        F  0.92552988  0.25726516  0.54543255    -0.19900
F815        F  0.91891594  0.32376719  0.52774767    -0.20200
F816        F  0.88751384  0.25028369  0.52743835    -0.22900
C817        C  0.70546100  0.31465544  0.50432252    -0.05700
C818        C  0.73453749  0.29890243  0.51085461     0.00200
C819        C  0.76092499  0.28381062  0.50091671    -0.08300
C820        C  0.75728994  0.28610731  0.48461553    -0.05700
C821        C  0.72830136  0.30242246  0.47809683     0.00200
C822        C  0.70168952  0.31606471  0.48802761    -0.08300
C823        C  0.66911599  0.33011520  0.48147716     0.62100
H824        H  0.68538459  0.32446738  0.51213204     0.12800
H825        H  0.77732183  0.27621314  0.47678799     0.12800
C826        C  0.79308078  0.26693380  0.50745074     0.62400
F827        F  0.64529684  0.33145734  0.49305273    -0.22800
F828        F  0.66052585  0.29156600  0.47047912    -0.20100
F829        F  0.67036284  0.38054318  0.47455334    -0.19800
F830        F  0.79012907  0.21770140  0.51496408    -0.19900
F831        F  0.80342918  0.30587103  0.51793495    -0.20200
F832        F  0.81649957  0.26117921  0.49578665    -0.22900
C833        C  0.00891217  0.12567458  0.85666395    -0.05700
C834        C  0.99516315  0.07505814  0.85269814     0.00200
C835        C  0.98290257  0.04163372  0.86486450    -0.08300
C836        C  0.98392141  0.06116008  0.88035959    -0.05700
C837        C  0.99705385  0.11208555  0.88419017     0.00200
C838        C  0.01023012  0.14476911  0.87218512    -0.08300
C839        C  0.02632286  0.19875296  0.87566381     0.62100
H840        H  0.01881262  0.15075073  0.84741738     0.12800
H841        H  0.97429637  0.03644513  0.88976511     0.12800
C842        C  0.96870858  0.98588378  0.86174662     0.62400
F843        F  0.04053687  0.22103087  0.86240097    -0.22800
F844        F  0.05004637  0.19177646  0.88651693    -0.20100
F845        F  0.00379019  0.23525484  0.88151650    -0.19800
F846        F  0.99200077  0.95238075  0.85506753    -0.19900
F847        F  0.93235314  0.54361077  0.84668447    -0.20200
F848        F  0.95756922  0.96142948  0.87534630    -0.22900
C849        C  0.96206097  0.42059523  0.63018942    -0.05700
C850        C  0.98206914  0.46332049  0.63514785     0.00200
C851        C  0.00443020  0.48633686  0.62435916    -0.08300
C852        C  0.00470044  0.46751965  0.60879793    -0.05700
C853        C  0.98389901  0.42637678  0.60379373     0.00200
C854        C  0.96250622  0.40181249  0.61459926    -0.08300
C855        C  0.93956015  0.35759353  0.60950012     0.62100
H856        H  0.94550597  0.40258668  0.63860896     0.12800
H857        H  0.02067082  0.48599537  0.60018673     0.12800
C858        C  0.00826494  0.07027145  0.62505160     0.62400
F859        F  0.92054391  0.33916489  0.62184418    -0.22800
F860        F  0.95687341  0.31405991  0.60343668    -0.20100
F861        F  0.91957242  0.37729232  0.59814969    -0.19800
F862        F  0.04558326  0.51217772  0.64177245    -0.19900
F863        F  0.98431769  0.10319823  0.63139748    -0.20200
F864        F  0.02014455  0.09524633  0.61167481    -0.22900
C865        C  0.96716425  0.99125371  0.73536573    -0.05700
C866        C  0.98404416  0.03067691  0.72658594     0.00200
C867        C  0.00450991  0.06737972  0.73438204    -0.08300
C868        C  0.00655440  0.06391004  0.75072253    -0.05700
C869        C  0.98961356  0.02454917  0.75950015     0.00200
C870        C  0.96999880  0.98670706  0.75164249    -0.08300
C871        C  0.94516802  0.44916739  0.76276158     0.62100
H872        H  0.94746316  0.46207249  0.73127776     0.12800
H873        H  0.02177206  0.09227943  0.75682864     0.12800
C874        C  0.02488743  0.10894215  0.72563935     0.62400
F875        F  0.92381002  0.42163934  0.75337484    -0.22800
F876        F  0.92740242  0.47911244  0.77364893    -0.20100
F877        F  0.96336648  0.41094812  0.77033777    -0.19800
F878        F  0.00520649  0.14574808  0.71836564    -0.19900
F879        F  0.04438571  0.08302906  0.71457862    -0.20200
F880        F  0.04460740  0.13781526  0.73553775    -0.22900
C881        C  0.74760753  0.05652356  0.85714833    -0.05700
C882        C  0.73851457  0.10912419  0.85280214     0.00200
C883        C  0.72922461  0.14711119  0.86447775    -0.08300
C884        C  0.73067305  0.13158605  0.88021025    -0.05700
C885        C  0.74098333  0.07947199  0.88472595     0.00200
C886        C  0.74974637  0.04105285  0.87289402    -0.08300
C887        C  0.76162899  0.98432275  0.87657563     0.62100
H888        H  0.75337330  0.02740256  0.84797324     0.12800
H889        H  0.72361298  0.16078215  0.88915353     0.12800
C890        C  0.71637403  0.20281590  0.86039050     0.62400
F891        F  0.76962605  0.95494087  0.86316449    -0.22800
F892        F  0.73787516  0.95595370  0.88458866    -0.20100
F893        F  0.78888287  0.98764689  0.88551034    -0.19800
F894        F  0.69127774  0.19740248  0.85014181    -0.19900
F895        F  0.74054054  0.23351366  0.85352099    -0.20200
F896        F  0.70493747  0.23077977  0.87348435    -0.22900
C897        C  0.84958521  0.10889206  0.79287706    -0.05700
C898        C  0.82958781  0.08146339  0.80362558     0.00200
C899        C  0.84324859  0.04576292  0.81446808    -0.08300
C900        C  0.87691837  0.04125362  0.81476826    -0.05700
C901        C  0.89709618  0.07122669  0.80461975     0.00200
C902        C  0.88321725  0.10373028  0.79297082    -0.08300
C903        C  0.90352323  0.13153225  0.78042830     0.62100
H904        H  0.83849833  0.13579111  0.78457458     0.12800
H905        H  0.88787394  0.01516287  0.82331287     0.12800
C906        C  0.82251599  0.01551765  0.82628599     0.62400
F907        F  0.88476380  0.15515347  0.76917425    -0.22800
F908        F  0.92340795  0.09393271  0.77298520    -0.20100
F909        F  0.92193723  0.17184242  0.78709719    -0.19800
F910        F  0.80057501  0.98324651  0.81863315    -0.19900
F911        F  0.80636625  0.05259835  0.83575956    -0.20200
F912        F  0.84054192  0.98240237  0.83571335    -0.22900
C913        C  0.71843216  0.24505755  0.63088010    -0.05700
C914        C  0.72930668  0.19230365  0.63409521     0.00200
C915        C  0.73836606  0.15755032  0.62156425    -0.08300
C916        C  0.73808679  0.17822055  0.60627271    -0.05700
C917        C  0.72849838  0.23199231  0.60297945     0.00200
C918        C  0.71732103  0.26547040  0.61556225    -0.08300
C919        C  0.70406272  0.32212748  0.61308284     0.62100
H920        H  0.71092246  0.27067708  0.64065700     0.12800
H921        H  0.74581666  0.15195038  0.59670501     0.12800
C922        C  0.74918273  0.09959029  0.62429195     0.62400
F923        F  0.69266283  0.34553002  0.62690941    -0.22800
F924        F  0.67871999  0.31974961  0.60289459    -0.20100
F925        F  0.72797269  0.35537820  0.60704835    -0.19800
F926        F  0.72417401  0.07027018  0.63097710    -0.19900
F927        F  0.77510030  0.09935787  0.63414558    -0.20200
F928        F  0.75844372  0.07359304  0.61049307    -0.22900
C929        C  0.88191982  0.10689567  0.68781690    -0.05700
C930        C  0.88811324  0.05738878  0.68002807     0.00200
C931        C  0.86320093  0.03177999  0.67177358    -0.08300
C932        C  0.83314678  0.05800592  0.67116116    -0.05700
C933        C  0.82705362  0.10825310  0.67872108     0.00200
C934        C  0.85177644  0.13259986  0.68753541    -0.08300
C935        C  0.84656716  0.18455945  0.69697082     0.62100
H936        H  0.90126627  0.12562046  0.69417289     0.12800
H937        H  0.81401345  0.03916784  0.66470942     0.12800
C938        C  0.86840791  0.97784193  0.66338951     0.62400
F939        F  0.87303469  0.19773806  0.70577160    -0.22800
F940        F  0.82060363  0.17852498  0.70720246    -0.20100
F941        F  0.84101514  0.22725941  0.68700309    -0.19800
F942        F  0.87566984  0.93833701  0.67414025    -0.19900
F943        F  0.89344236  0.98223061  0.65254991    -0.20200
F944        F  0.84130840  0.96118714  0.65556192    -0.22900
C945        C  0.72572179  0.19177142  0.73534058    -0.05700
C946        C  0.73730777  0.14642261  0.72682941     0.00200
C947        C  0.75147105  0.10286407  0.73483946    -0.08300
C948        C  0.75238563  0.10556990  0.75125648    -0.05700
C949        C  0.74052871  0.15074079  0.75974438     0.00200
C950        C  0.72718163  0.19492504  0.75171172    -0.08300
C951        C  0.71376561  0.24438467  0.76033708     0.62100
H952        H  0.71543590  0.22515382  0.72897233     0.12800
H953        H  0.76255556  0.07217497  0.75767672     0.12800
C954        C  0.76659874  0.05492377  0.72616394     0.62400
F955        F  0.69974224  0.28071959  0.75028204    -0.22800
F956        F  0.73826420  0.27111293  0.76787925    -0.20100
F957        F  0.69057901  0.22855806  0.77120775    -0.19800
F958        F  0.78944119  0.07317098  0.71544115    -0.19900
F959        F  0.74321114  0.02609555  0.71843374    -0.20200
F960        F  0.78163861  0.01978566  0.73621902    -0.22900
C961        C  0.49159410  0.19449012  0.63012312    -0.05700
C962        C  0.48813504  0.25016059  0.63374531     0.00200
C963        C  0.48505060  0.28757354  0.62145280    -0.08300
C964        C  0.48346238  0.26730755  0.60607306    -0.05700
C965        C  0.48521440  0.21123618  0.60244458     0.00200
C966        C  0.49059835  0.17421625  0.61469356    -0.08300
C967        C  0.49485042  0.11375931  0.61174532     0.62100
H968        H  0.49479226  0.16649411  0.63963144     0.12800
H969        H  0.48066524  0.29584504  0.59667240     0.12800
C970        C  0.48258018  0.34833456  0.62443921     0.62400
F971        F  0.49940088  0.08555766  0.62545956    -0.22800
F972        F  0.52155376  0.10488392  0.60213087    -0.20100
F973        F  0.46779139  0.09293029  0.60476556    -0.19800
F974        F  0.51073651  0.36698273  0.63088717    -0.19900
F975        F  0.45696045  0.35934271  0.63456775    -0.20200
F976        F  0.47783015  0.37691420  0.61080954    -0.22900
C977        C  0.59668543  0.26475507  0.68953435    -0.05700
C978        C  0.57497474  0.22761499  0.68298309     0.00200
C979        C  0.58658253  0.17721910  0.67718186    -0.08300
C980        C  0.61988524  0.16736574  0.67735739    -0.05700
C981        C  0.64186116  0.20551806  0.68331909     0.00200
C982        C  0.62989970  0.25459484  0.68997655    -0.08300
C983        C  0.65159668  0.29594437  0.69774242     0.62100
H984        H  0.58732248  0.30266008  0.69423090     0.12800
H985        H  0.62907074  0.12955805  0.67253524     0.12800
C986        C  0.56431417  0.13456632  0.67046308     0.62400
F987        F  0.63420563  0.33730402  0.70501153    -0.22800
F988        F  0.67186464  0.31921941  0.68665792    -0.20100
F989        F  0.66955052  0.27088615  0.70903558    -0.19800
F990        F  0.54739677  0.15624490  0.65825925    -0.19900
F991        F  0.54304381  0.11699779  0.68200515    -0.20200
F992        F  0.58099189  0.08967834  0.66477098    -0.22900
C993        C  0.48148638  0.39443119  0.85657696    -0.05700
C994        C  0.49890953  0.34806124  0.85182991     0.00200
C995        C  0.51821157  0.32101761  0.86261329    -0.08300
C996        C  0.51756739  0.33918822  0.87820072    -0.05700
C997        C  0.49902544  0.38430844  0.88327668     0.00200
C998        C  0.48137892  0.41364938  0.87213165    -0.08300
C999        C  0.46252595  0.46462290  0.87642154     0.62100
H1000       H  0.46790378  0.41564874  0.84787351     0.12800
H1001       H  0.53189012  0.31790109  0.88659593     0.12800
C1002       C  0.54056669  0.27505097  0.85753570     0.62400
F1003       F  0.44755736  0.48650540  0.86361837    -0.22800
F1004       F  0.48313174  0.50358606  0.88221251    -0.20100
F1005       F  0.43900632  0.45280917  0.88756546    -0.19800
F1006       F  0.56110549  0.29265173  0.84567858    -0.19900
F1007       F  0.52287060  0.23149332  0.85220691    -0.20200
F1008       F  0.55917022  0.25724244  0.86969829    -0.22900
C1009       C  0.64795121  0.25634330  0.80363709    -0.05700
C1010       C  0.64964012  0.20126992  0.80796478     0.00200
C1011       C  0.62111464  0.17430779  0.81271413    -0.08300
C1012       C  0.59201235  0.20318718  0.81260673    -0.05700
C1013       C  0.58995396  0.25766738  0.80767012     0.00200
C1014       C  0.61866612  0.28512837  0.80332485    -0.08300
C1015       C  0.61872639  0.34391132  0.79814325     0.62100
H1016       H  0.66997180  0.27673917  0.80018449     0.12800
H1017       H  0.57025186  0.18243857  0.81624889     0.12800
C1018       C  0.62103219  0.11556293  0.81800621     0.62400
F1019       F  0.64935295  0.36199382  0.79423728    -0.22800
F1020       F  0.60682126  0.37669399  0.81014260    -0.20100
F1021       F  0.59994132  0.34942561  0.78510885    -0.19800
F1022       F  0.64279338  0.10878248  0.82983164    -0.19900
F1023       F  0.62917536  0.08197007  0.80549862    -0.20200
F1024       F  0.59113469  0.09950776  0.82370865    -0.22900
C1025       C  0.48198161  0.34238126  0.75204011    -0.05700
C1026       C  0.49305588  0.29532613  0.75945377     0.00200
C1027       C  0.50154398  0.24919494  0.75037539    -0.08300
C1028       C  0.49881067  0.25211645  0.73404403    -0.05700
C1029       C  0.48801234  0.29939273  0.72661922     0.00200
C1030       C  0.47915392  0.34526598  0.73572881    -0.08300
C1031       C  0.46599271  0.39632018  0.72839078     0.62100
H1032       H  0.47546350  0.37728261  0.75922593     0.12800
H1033       H  0.50535608  0.21723555  0.72685812     0.12800
C1034       C  0.51424016  0.19792621  0.75778545     0.62400
F1035       F  0.45560646  0.43370188  0.73958158    -0.22800
F1036       F  0.44011987  0.38340604  0.71919017    -0.20100
F1037       F  0.48967800  0.42060079  0.71927408    -0.19800
F1038       F  0.49045800  0.17486877  0.76712003    -0.19900
F1039       F  0.54051487  0.21023182  0.76679541    -0.20200
F1040       F  0.52382003  0.15975903  0.74665293    -0.22900
C1041       C  0.25220748  0.52530977  0.62738872    -0.05700
C1042       C  0.23797929  0.47628088  0.63247551     0.00200
C1043       C  0.22033951  0.44461812  0.62169256    -0.08300
C1044       C  0.21761810  0.46347300  0.60633952    -0.05700
C1045       C  0.23231762  0.51165248  0.60127830     0.00200
C1046       C  0.25003123  0.54325928  0.61186546    -0.08300
C1047       C  0.26764718  0.59413383  0.60661738     0.62100
H1048       H  0.26567806  0.54927553  0.63563864     0.12800
H1049       H  0.20462298  0.43961696  0.59786191     0.12800
C1050       C  0.20446013  0.39116694  0.62609851     0.62400
F1051       F  0.28498611  0.61729473  0.61858462    -0.22800
F1052       F  0.26673049  0.10365296  0.59953536    -0.20100
F1053       F  0.28892909  0.58158561  0.59445180    -0.19800
F1054       F  0.18299040  0.39918118  0.63849470    -0.19900
F1055       F  0.22769383  0.35403846  0.63017460    -0.20200
F1056       F  0.18758133  0.36886648  0.61383898    -0.22900
C1057       C  0.09705778  0.02516442  0.67813286    -0.05700
C1058       C  0.07640998  0.47295691  0.68173135     0.00200
C1059       C  0.09220765  0.42326522  0.67837401    -0.08300
C1060       C  0.12605171  0.42222731  0.67817707    -0.05700
C1061       C  0.14494863  0.46893567  0.68095448     0.00200
C1062       C  0.13080386  0.02111321  0.67830006    -0.08300
C1063       C  0.15112173  0.07065732  0.67438870     0.62100
H1064       H  0.08644338  0.06410124  0.67561555     0.12800
H1065       H  0.13801402  0.38414801  0.67564202     0.12800
C1066       C  0.07379092  0.37179643  0.67449984     0.62400
F1067       F  0.13250370  0.11496389  0.67055173    -0.22800
F1068       F  0.17132765  0.05925316  0.66170613    -0.20100
F1069       F  0.16914079  0.08518880  0.68715781    -0.19800
F1070       F  0.05406626  0.38095617  0.66197509    -0.19900
F1071       F  0.05542058  0.35602808  0.68735203    -0.20200
F1072       F  0.09408797  0.32916060  0.67045689    -0.22900
C1073       C  0.34025041  0.35951129  0.68884942    -0.05700
C1074       C  0.33494349  0.40329659  0.67882776     0.00200
C1075       C  0.36035911  0.42198003  0.66907134    -0.08300
C1076       C  0.39035424  0.39511015  0.66952727    -0.05700
C1077       C  0.39530938  0.34965682  0.67914936     0.00200
C1078       C  0.36988271  0.33221338  0.68923262    -0.08300
C1079       C  0.37373845  0.28541961  0.70050132     0.62100
H1080       H  0.32033343  0.34576700  0.69618664     0.12800
H1081       H  0.41004118  0.40869708  0.66203561     0.12800
C1082       C  0.35530116  0.46834666  0.65783886     0.62400
F1083       F  0.34715580  0.27970013  0.71038698    -0.22800
F1084       F  0.40017895  0.29417667  0.70970688    -0.20100
F1085       F  0.37762209  0.23741140  0.69219291    -0.19800
F1086       F  0.34703469  0.51485130  0.66615118    -0.19900
F1087       F  0.33086267  0.45539488  0.64775205    -0.20200
F1088       F  0.38274926  0.47918017  0.64895703    -0.22900
C1089       C  0.24103041  0.30745820  0.85463100    -0.05700
C1090       C  0.24542803  0.36290477  0.85100770     0.00200
C1091       C  0.25276830  0.39964093  0.86329191    -0.08300
C1092       C  0.25295755  0.38005855  0.87869775    -0.05700
C1093       C  0.24697726  0.32528666  0.88232795     0.00200
C1094       C  0.24212205  0.28774489  0.87001163    -0.08300
C1095       C  0.23759922  0.22746985  0.87296575     0.62100
H1096       H  0.23664298  0.27894457  0.84522173     0.12800
H1097       H  0.25774413  0.40800697  0.88821665     0.12800
C1098       C  0.26034064  0.45911691  0.86042935     0.62400
F1099       F  0.23207797  0.19868351  0.85930928    -0.22800
F1100       F  0.21156339  0.21944317  0.88302708    -0.20100
F1101       F  0.26503466  0.20647544  0.87947159    -0.19800
F1102       F  0.23418737  0.48430311  0.85391341    -0.19900
F1103       F  0.28690776  0.46342344  0.85048928    -0.20200
F1104       F  0.26731502  0.48666875  0.87412109    -0.22900
C1105       C  0.35748564  0.41015592  0.80605745    -0.05700
C1106       C  0.33719451  0.36509400  0.80334081     0.00200
C1107       C  0.35137408  0.31333898  0.80085574    -0.08300
C1108       C  0.38505586  0.30935912  0.80076724    -0.05700
C1109       C  0.40516413  0.35410933  0.80382755     0.00200
C1110       C  0.39113581  0.40553079  0.80664429    -0.08300
C1111       C  0.41116487  0.45486182  0.81084362     0.62100
H1112       H  0.34676690  0.44966440  0.80806216     0.12800
H1113       H  0.39607707  0.27017223  0.79853871     0.12800
C1114       C  0.33160938  0.26205113  0.79864529     0.62400
F1115       F  0.39224933  0.49966095  0.81446992    -0.22800
F1116       F  0.43120630  0.46833485  0.79835710    -0.20100
F1117       F  0.42939021  0.44367336  0.82376029    -0.19800
F1118       F  0.31299198  0.26667759  0.78552771    -0.19900
F1119       F  0.31210638  0.25377766  0.81173021    -0.20200
F1120       F  0.35073073  0.21640272  0.79664277    -0.22900
C1121       C  0.14166260  0.49055516  0.81584824    -0.05700
C1122       C  0.14889794  0.44494111  0.80633266     0.00200
C1123       C  0.12502897  0.42451574  0.79625794    -0.08300
C1124       C  0.09461462  0.44992019  0.79642171    -0.05700
C1125       C  0.08771012  0.49569000  0.80585823     0.00200
C1126       C  0.11156963  0.51652629  0.81572839    -0.08300
C1127       C  0.10405905  0.07577422  0.78658929     0.62100
H1128       H  0.16006047  0.50616183  0.82343330     0.12800
H1129       H  0.07580276  0.43430045  0.78907308     0.12800
C1130       C  0.13170857  0.37750004  0.78504848     0.62400
F1131       F  0.13077008  0.08992352  0.77756938    -0.22800
F1132       F  0.09553832  0.12016094  0.79577199    -0.20100
F1133       F  0.07940298  0.06361717  0.77654657    -0.19800
F1134       F  0.13760875  0.33091086  0.79340714    -0.19900
F1135       F  0.15811587  0.38924073  0.77554757    -0.20200
F1136       F  0.10596556  0.36731116  0.77546927    -0.22900
C1137       C  0.22574577  0.38038567  0.74975698    -0.05700
C1138       C  0.24254962  0.42002758  0.75831012     0.00200
C1139       C  0.26002465  0.46051561  0.75012771    -0.08300
C1140       C  0.25909353  0.46063260  0.73370556    -0.05700
C1141       C  0.24204268  0.42128924  0.72516393     0.00200
C1142       C  0.22545940  0.37968378  0.73332609    -0.08300
C1143       C  0.20725738  0.33496247  0.72494849     0.62100
H1144       H  0.21271403  0.34932251  0.75611044     0.12800
H1145       H  0.27207993  0.49173142  0.72734992     0.12800
C1146       C  0.28039617  0.50242763  0.75847519     0.62400
F1147       F  0.16895685  0.83816705  0.73763998    -0.22800
F1148       F  0.22847244  0.30421634  0.71587555    -0.20100
F1149       F  0.18416246  0.35741557  0.71557545    -0.19800
F1150       F  0.30230091  0.47657103  0.76780901    -0.19900
F1151       F  0.26090035  0.53603921  0.76759074    -0.20200
F1152       F  0.29753856  0.53474015  0.74807574    -0.22900
C1153       C  0.24243116  0.06858376  0.35588500    -0.05700
C1154       C  0.23476583  0.12294544  0.35257900     0.00200
C1155       C  0.22498639  0.15796351  0.36491419    -0.08300
C1156       C  0.22346669  0.13717900  0.38016167    -0.05700
C1157       C  0.23102664  0.08258061  0.38357664     0.00200
C1158       C  0.24047088  0.04736986  0.37109631    -0.08300
C1159       C  0.24809566  0.98775736  0.37353834     0.62100
H1160       H  0.24988607  0.04223018  0.34624583     0.12800
H1161       H  0.21628360  0.16433631  0.38963229     0.12800
C1162       C  0.21540300  0.21646144  0.36203839     0.62400
F1163       F  0.25522143  0.96098688  0.35958045    -0.22800
F1164       F  0.22181844  0.96219702  0.38040253    -0.20100
F1165       F  0.27446501  0.98283113  0.38298602    -0.19800
F1166       F  0.19158284  0.21826148  0.35101778    -0.19900
F1167       F  0.24188935  0.24537156  0.35672465    -0.20200
F1168       F  0.20364626  0.24176889  0.37551043    -0.22900
C1169       C  0.23932926  0.24406727  0.12969052    -0.05700
C1170       C  0.24296157  0.18899808  0.13367400     0.00200
C1171       C  0.24565624  0.14984786  0.12151041    -0.08300
C1172       C  0.24552330  0.16777832  0.10587300    -0.05700
C1173       C  0.24277892  0.22321422  0.10191125     0.00200
C1174       C  0.23929593  0.26211516  0.11415024    -0.08300
C1175       C  0.23593247  0.32257016  0.11111691     0.62100
H1176       H  0.23649143  0.27370774  0.13901836     0.12800
H1177       H  0.24763144  0.13801098  0.09653934     0.12800
C1178       C  0.24911363  0.08972982  0.12486507     0.62400
F1179       F  0.23415522  0.35277518  0.12484076    -0.22800
F1180       F  0.20808260  0.33218067  0.10305103    -0.20100
F1181       F  0.26230435  0.34084313  0.10253895    -0.19800
F1182       F  0.22181673  0.07125016  0.13266036    -0.19900
F1183       F  0.27570507  0.08117914  0.13395364    -0.20200
F1184       F  0.25303717  0.05917573  0.11128917    -0.22900
C1185       C  0.26502313  0.19015628  0.23520150    -0.05700
C1186       C  0.24198962  0.15899209  0.22728921     0.00200
C1187       C  0.21592065  0.13611402  0.23582638    -0.08300
C1188       C  0.21419043  0.14468237  0.25208024    -0.05700
C1189       C  0.23761527  0.17470401  0.26003693     0.00200
C1190       C  0.26347782  0.19810633  0.25151135    -0.08300
C1191       C  0.28988061  0.22940652  0.25959097     0.62100
H1192       H  0.28452800  0.20807039  0.22844032     0.12800
H1193       H  0.19470154  0.12674829  0.25885522     0.12800
C1194       C  0.18974818  0.10369977  0.22789991     0.62400
F1195       F  0.31339520  0.24698021  0.24909829    -0.22800
F1196       F  0.30441206  0.19661504  0.27042141    -0.20100
F1197       F  0.27694818  0.27454967  0.26710395    -0.19800
F1198       F  0.20282455  0.05724744  0.22117464    -0.19900
F1199       F  0.17577168  0.13469402  0.21648177    -0.20200
F1200       F  0.16571101  0.08801980  0.23837568    -0.22900
C1201       C  0.47267680  0.14549843  0.35611281    -0.05700
C1202       C  0.48700481  0.09564122  0.35186880     0.00200
C1203       C  0.50278422  0.06503263  0.36321856    -0.08300
C1204       C  0.50242752  0.08455409  0.37868870    -0.05700
C1205       C  0.48768753  0.13430429  0.38314224     0.00200
C1206       C  0.47313505  0.16607670  0.37150026    -0.08300
C1207       C  0.45852132  0.22145959  0.37501025     0.62100
H1208       H  0.46144204  0.16887076  0.34705676     0.12800
H1209       H  0.51420552  0.06072142  0.38744854     0.12800
C1210       C  0.52131267  0.01367124  0.35891078     0.62400
F1211       F  0.44686945  0.24560864  0.36171506    -0.22800
F1212       F  0.48168059  0.25552331  0.38103798    -0.20100
F1213       F  0.43317973  0.21647601  0.38564639    -0.19800
F1214       F  0.54451117  0.02518527  0.34757263    -0.19900
F1215       F  0.50056099  0.97478782  0.35324465    -0.20200
F1216       F  0.53664267  0.99199489  0.37163866    -0.22900
C1217       C  0.34262700  0.08293008  0.29507063    -0.05700
C1218       C  0.32997364  0.12092587  0.30583728     0.00200
C1219       C  0.35125207  0.14953609  0.31583230    -0.08300
C1220       C  0.38449599  0.13989024  0.31432918    -0.05700
C1221       C  0.39705691  0.10191522  0.30361824     0.00200
C1222       C  0.37593279  0.07268014  0.29379628    -0.08300
C1223       C  0.38844183  0.03144786  0.28182698     0.62100
H1224       H  0.32618870  0.06166082  0.28753719     0.12800
H1225       H  0.40103510  0.16112041  0.32182876     0.12800
C1226       C  0.33923950  0.18913735  0.32841306     0.62400
F1227       F  0.36469954  0.01504074  0.27173270    -0.22800
F1228       F  0.39959173  0.98601100  0.28936261    -0.20100
F1229       F  0.41316437  0.05377739  0.27293575    -0.19800
F1230       F  0.31400696  0.16644205  0.33689937    -0.19900
F1231       F  0.32920427  0.23670103  0.32158733    -0.20200
F1232       F  0.36304693  0.20225823  0.33885481    -0.22900
C1233       C  0.50775544  0.45738904  0.12895388    -0.05700
C1234       C  0.49501873  0.50858834  0.13299561     0.00200
C1235       C  0.48055923  0.54037232  0.12148755    -0.08300
C1236       C  0.47799135  0.51833534  0.10637613    -0.05700
C1237       C  0.48997674  0.46625696  0.10227794     0.00200
C1238       C  0.50589321  0.43560307  0.11376185    -0.08300
C1239       C  0.52106382  0.38059105  0.11024988     0.62100
H1240       H  0.51903758  0.43405652  0.13801812     0.12800
H1241       H  0.46631677  0.54225957  0.09759021     0.12800
C1242       C  0.54400951  0.05233267  0.12663159     0.62400
F1243       F  0.53611133  0.35948155  0.12313946    -0.22800
F1244       F  0.54404011  0.38541984  0.09839622    -0.20100
F1245       F  0.49763879  0.34410137  0.10583525    -0.19800
F1246       F  0.56051391  0.02919671  0.13876577    -0.19900
F1247       F  0.53184500  0.10210415  0.13142164    -0.20200
F1248       F  0.56574803  0.06101975  0.11440172    -0.22900
C1249       C  0.39104781  0.11045595  0.16769237    -0.05700
C1250       C  0.39893052  0.06877220  0.17808993     0.00200
C1251       C  0.37574731  0.05114733  0.18929867    -0.08300
C1252       C  0.34516836  0.07558397  0.18950464    -0.05700
C1253       C  0.33746457  0.11754802  0.17919695     0.00200
C1254       C  0.36059850  0.13524792  0.16803202    -0.08300
C1255       C  0.35288010  0.17903517  0.15631640     0.62100
H1256       H  0.40922973  0.12388005  0.15930684     0.12800
H1257       H  0.32685426  0.06216918  0.19782584     0.12800
C1258       C  0.37769858  0.50050947  0.16993955     0.62400
F1259       F  0.37806473  0.18746684  0.14575882    -0.22800
F1260       F  0.34674877  0.22742971  0.16411738    -0.20100
F1261       F  0.32615177  0.16419093  0.14794950    -0.19800
F1262       F  0.38776262  0.46931399  0.18227894    -0.19900
F1263       F  0.39985821  0.49676407  0.15766828    -0.20200
F1264       F  0.34896127  0.47902691  0.16488313    -0.22900
C1265       C  0.50046624  0.00270919  0.25177815    -0.05700
C1266       C  0.49237029  0.05237069  0.25882972     0.00200
C1267       C  0.48433897  0.09740921  0.24929637    -0.08300
C1268       C  0.48467795  0.09038095  0.23298860    -0.05700
C1269       C  0.49244438  0.04057590  0.22594373     0.00200
C1270       C  0.50098605  0.99576176  0.23546357    -0.08300
C1271       C  0.50595330  0.45583824  0.22961938     0.62100
H1272       H  0.50664162  0.96913882  0.25924214     0.12800
H1273       H  0.47847093  0.12393203  0.22552849     0.12800
C1274       C  0.47480419  0.15265869  0.25605057     0.62400
F1275       F  0.51403653  0.42060131  0.24143492    -0.22800
F1276       F  0.53039586  0.45361750  0.21839705    -0.20100
F1277       F  0.47762860  0.43728606  0.22332196    -0.19800
F1278       F  0.50116573  0.17723747  0.26266641    -0.19900
F1279       F  0.45055165  0.14685608  0.26723603    -0.20200
F1280       F  0.46356068  0.18715808  0.24470312    -0.22900
C1281       C  0.97274063  0.40350224  0.35656810    -0.05700
C1282       C  0.98360596  0.35073456  0.35281649     0.00200
C1283       C  0.99463632  0.31696814  0.36478325    -0.08300
C1284       C  0.99394080  0.33705689  0.38017406    -0.05700
C1285       C  0.98282476  0.38977196  0.38415716     0.00200
C1286       C  0.97216190  0.42393397  0.37204158    -0.08300
C1287       C  0.96034711  0.48137331  0.37519998     0.62100
H1288       H  0.96473603  0.42888900  0.34713433     0.12800
H1289       H  0.00243897  0.31089656  0.38929542     0.12800
C1290       C  0.00821586  0.26071921  0.36133394     0.62400
F1291       F  0.95096584  0.50677644  0.36165595    -0.22800
F1292       F  0.98471803  0.51197267  0.38158351    -0.20100
F1293       F  0.93411368  0.48045507  0.38542427    -0.19800
F1294       F  0.03269918  0.26399677  0.35015628    -0.19900
F1295       F  0.98419170  0.22718340  0.35592582    -0.20200
F1296       F  0.02072955  0.23707403  0.37450914    -0.22900
C1297       C  0.08416270  0.20076121  0.31091501    -0.05700
C1298       C  0.08032132  0.25728909  0.30887268     0.00200
C1299       C  0.10833008  0.28947952  0.30657759    -0.08300
C1300       C  0.13854243  0.26367638  0.30609409    -0.05700
C1301       C  0.14239025  0.20723464  0.30801210     0.00200
C1302       C  0.11456392  0.17512243  0.31057246    -0.08300
C1303       C  0.11666117  0.11433677  0.31312199     0.62100
H1304       H  0.06290677  0.17613567  0.31269673     0.12800
H1305       H  0.15978925  0.28812046  0.30407340     0.12800
C1306       C  0.10699495  0.35080569  0.30470526     0.62400
F1307       F  0.08689175  0.09172617  0.31653907    -0.22800
F1308       F  0.13645344  0.10378679  0.32552521    -0.20100
F1309       F  0.12882108  0.08924464  0.29972165    -0.19800
F1310       F  0.09172947  0.37410791  0.31764426    -0.19900
F1311       F  0.09068509  0.36366585  0.29132266    -0.20200
F1312       F  0.13731165  0.37368967  0.30338068    -0.22900
C1313       C  0.02127457  0.22064868  0.12733434    -0.05700
C1314       C  0.99172457  0.22867683  0.13524630     0.00200
C1315       C  0.96267241  0.21649229  0.12767825    -0.08300
C1316       C  0.96408945  0.19761924  0.11216791    -0.05700
C1317       C  0.99347229  0.18943869  0.10423283     0.00200
C1318       C  0.02262467  0.20084127  0.11181162    -0.08300
C1319       C  0.05477996  0.19264260  0.10342423     0.62100
H1320       H  0.04316597  0.22892961  0.13350262     0.12800
H1321       H  0.94230825  0.18900265  0.10611617     0.12800
C1322       C  0.93025126  0.22292919  0.13600282     0.62400
F1323       F  0.08026585  0.20451780  0.11300819    -0.22800
F1324       F  0.05683791  0.22609722  0.09054870    -0.20100
F1325       F  0.05769743  0.13918958  0.09854127    -0.19800
F1326       F  0.92785694  0.27394611  0.14279854    -0.19900
F1327       F  0.92703200  0.18395343  0.14744966    -0.20200
F1328       F  0.90503185  0.21687718  0.12584501    -0.22900
C1329       C  0.10311382  0.25284739  0.19081012    -0.05700
C1330       C  0.08270660  0.21417315  0.18397101     0.00200
C1331       C  0.09620142  0.16728700  0.17683452    -0.08300
C1332       C  0.12987430  0.16204120  0.17623483    -0.05700
C1333       C  0.15047024  0.20157495  0.18263763     0.00200
C1334       C  0.13678956  0.24737441  0.19038949    -0.08300
C1335       C  0.15720922  0.29005711  0.19837444     0.62100
H1336       H  0.09232856  0.28820169  0.19634342     0.12800
H1337       H  0.14039511  0.12684799  0.17052280     0.12800
C1338       C  0.07543369  0.12378627  0.16945918     0.62400
F1339       F  0.13860150  0.32827585  0.20635731    -0.22800
F1340       F  0.17578494  0.31708796  0.18732152    -0.20100
F1341       F  0.17689150  0.26564793  0.20908921    -0.19800
F1342       F  0.05688625  0.14635734  0.15796983    -0.19900
F1343       F  0.05563444  0.10083528  0.18079925    -0.20200
F1344       F  0.09368457  0.08259014  0.16263530    -0.22900
C1345       C  0.01509164  0.30249081  0.23480569    -0.05700
C1346       C  0.98785146  0.28019795  0.22792039     0.00200
C1347       C  0.96249549  0.25932529  0.23753484    -0.08300
C1348       C  0.96540360  0.26199290  0.25384226    -0.05700
C1349       C  0.99226259  0.28548595  0.26070785     0.00200
C1350       C  0.01794816  0.30508554  0.25112525    -0.08300
C1351       C  0.04870008  0.32705841  0.25802852     0.62100
H1352       H  0.03442788  0.31709967  0.22726183     0.12800
H1353       H  0.94625347  0.24701522  0.26139904     0.12800
C1354       C  0.93184374  0.23649828  0.23073267     0.62400
F1355       F  0.07300384  0.33173687  0.24679093    -0.22800
F1356       F  0.05936556  0.29235589  0.26944307    -0.20100
F1357       F  0.04318032  0.37789905  0.26449193    -0.19800
F1358       F  0.93808762  0.18736927  0.22335298    -0.19900
F1359       F  0.91967183  0.27277710  0.22013135    -0.20200
F1360       F  0.90836269  0.22775193  0.24217114    -0.22900
C1361       C  0.72691460  0.42136986  0.38204533    -0.05700
C1362       C  0.73435830  0.36697276  0.38575439     0.00200
C1363       C  0.74475795  0.33154669  0.37345895    -0.08300
C1364       C  0.74586986  0.35133298  0.35806755    -0.05700
C1365       C  0.73731066  0.40489277  0.35434684     0.00200
C1366       C  0.72828832  0.44106988  0.36658574    -0.08300
C1367       C  0.71921525  0.49952155  0.36337022     0.62100
H1368       H  0.71973468  0.44888178  0.39142451     0.12800
H1369       H  0.75343129  0.32442996  0.34859327     0.12800
C1370       C  0.75448876  0.27301376  0.37626896     0.62400
F1371       F  0.70336166  0.02740261  0.37493866    -0.22800
F1372       F  0.69296094  0.99697743  0.35084912    -0.20100
F1373       F  0.74228382  0.02897507  0.35648220    -0.19800
F1374       F  0.72899650  0.24498449  0.38300677    -0.19900
F1375       F  0.78062854  0.27165101  0.38597659    -0.20200
F1376       F  0.76323317  0.24619852  0.36252551    -0.22900
C1377       C  0.88398802  0.38608907  0.31816242    -0.05700
C1378       C  0.89649034  0.35984529  0.30479513     0.00200
C1379       C  0.87581110  0.34440660  0.29261717    -0.08300
C1380       C  0.84282302  0.35638809  0.29419987    -0.05700
C1381       C  0.83028396  0.38300766  0.30754060     0.00200
C1382       C  0.85101935  0.39771893  0.31985347    -0.08300
C1383       C  0.83831007  0.42335458  0.33500803     0.62100
H1384       H  0.90027187  0.39625715  0.32745441     0.12800
H1385       H  0.82661766  0.34588532  0.28490991     0.12800
C1386       C  0.88873010  0.31597587  0.27799376     0.62400
F1387       F  0.86188102  0.42707232  0.34615002    -0.22800
F1388       F  0.81354603  0.39211589  0.34113633    -0.20100
F1389       F  0.82717085  0.47516438  0.33229336    -0.19800
F1390       F  0.90031278  0.26537633  0.28183722    -0.19900
F1391       F  0.91333904  0.34634035  0.27133986    -0.20200
F1392       F  0.86522494  0.30909387  0.26694050    -0.22900
C1393       C  0.64107731  0.02239224  0.30002943    -0.05700
C1394       C  0.64704284  0.97482287  0.30849062     0.00200
C1395       C  0.62142082  0.94974925  0.31681356    -0.08300
C1396       C  0.59062374  0.97347868  0.31634667    -0.05700
C1397       C  0.58453761  0.02098875  0.30778306     0.00200
C1398       C  0.61024868  0.04573455  0.29936072    -0.08300
C1399       C  0.60993508  0.61727584  0.29020131     0.62100
H1400       H  0.66367026  0.55652707  0.29394720     0.12800
H1401       H  0.57084394  0.95465943  0.32266773     0.12800
C1402       C  0.62656652  0.89895276  0.32637327     0.62400
F1403       F  0.63830206  0.63044513  0.28234617    -0.22800
F1404       F  0.59635292  0.13912984  0.29861750    -0.20100
F1405       F  0.58156067  0.08493997  0.27855731    -0.19800
F1406       F  0.65070281  0.90771355  0.33697269    -0.19900
F1407       F  0.63509081  0.85625662  0.31653590    -0.20200
F1408       F  0.59906156  0.88413994  0.33469377    -0.22900
C1409       C  0.76115081  0.95707922  0.10849817    -0.05700
C1410       C  0.74084568  0.00005075  0.10418711     0.00200
C1411       C  0.73919083  0.53283410  0.11529793    -0.08300
C1412       C  0.74163715  0.51392692  0.13067899    -0.05700
C1413       C  0.74274520  0.96397227  0.13536951     0.00200
C1414       C  0.76218418  0.93819281  0.12388121    -0.08300
C1415       C  0.78452772  0.89205472  0.12798166     0.62100
H1416       H  0.77644154  0.93801272  0.09963015     0.12800
H1417       H  0.74233785  0.54331723  0.14013062     0.12800
C1418       C  0.73820006  0.59366854  0.11248621     0.62400
F1419       F  0.80258690  0.87417347  0.11515257    -0.22800
F1420       F  0.76667666  0.84875141  0.13356244    -0.20100
F1421       F  0.80547018  0.90918506  0.13933831    -0.19800
F1422       F  0.70937750  0.60744986  0.10581096    -0.19900
F1423       F  0.76354750  0.60856749  0.10269285    -0.20200
F1424       F  0.74064118  0.62339544  0.12622609    -0.22900
C1425       C  0.63917289  0.01343657  0.19137448    -0.05700
C1426       C  0.65243999  0.97520190  0.18091633     0.00200
C1427       C  0.63423717  0.45480335  0.16854470    -0.08300
C1428       C  0.60104965  0.46579103  0.16939321    -0.05700
C1429       C  0.58577000  0.99310591  0.18202714     0.00200
C1430       C  0.60591842  0.02324560  0.19210526    -0.08300
C1431       C  0.59250256  0.06455361  0.20384032     0.62100
H1432       H  0.65506493  0.03493552  0.19913530     0.12800
H1433       H  0.58504251  0.44730552  0.16108487     0.12800
C1434       C  0.64736360  0.41888069  0.15531769     0.62400
F1435       F  0.61578608  0.08287058  0.21393036    -0.22800
F1436       F  0.56814741  0.04141559  0.21276854    -0.20100
F1437       F  0.58060863  0.10897319  0.19609284    -0.19800
F1438       F  0.65796615  0.37004686  0.16112301    -0.19900
F1439       F  0.67252047  0.44495269  0.14769123    -0.20200
F1440       F  0.62425856  0.40752910  0.14435325    -0.22900
C1441       C  0.89661417  0.37499440  0.17622101    -0.05700
C1442       C  0.89906682  0.31894720  0.17944861     0.00200
C1443       C  0.87030939  0.28940048  0.18239270    -0.08300
C1444       C  0.84081963  0.31764165  0.18274947    -0.05700
C1445       C  0.83845201  0.37372829  0.17972981     0.00200
C1446       C  0.86697326  0.40276149  0.17604257    -0.08300
C1447       C  0.86641804  0.46213631  0.17139844     0.62100
H1448       H  0.91838838  0.39753427  0.17369752     0.12800
H1449       H  0.81897379  0.29544607  0.18541044     0.12800
C1450       C  0.87009291  0.22839163  0.18491071     0.62400
F1451       F  0.89665865  0.48093404  0.16704876    -0.22800
F1452       F  0.85538329  0.49368079  0.18384312    -0.20100
F1453       F  0.84655572  0.46871839  0.15879017    -0.19800
F1454       F  0.88715975  0.21564993  0.19805377    -0.19900
F1455       F  0.88363785  0.20249441  0.17196440    -0.20200
F1456       F  0.83926251  0.20821834  0.18702498    -0.22900
C1457       C  0.77046164  0.45071142  0.23569198    -0.05700
C1458       C  0.74450256  0.42708339  0.22784016     0.00200
C1459       C  0.72039823  0.89876452  0.23711854    -0.08300
C1460       C  0.71981952  0.90508666  0.25348214    -0.05700
C1461       C  0.74229031  0.44221798  0.26075170     0.00200
C1462       C  0.76986449  0.45875101  0.25204548    -0.08300
C1463       C  0.79872286  0.48360782  0.25994917     0.62100
H1464       H  0.79127375  0.46329336  0.22881063     0.12800
H1465       H  0.70195818  0.88355273  0.26040988     0.12800
C1466       C  0.69520547  0.86364718  0.22937317     0.62400
F1467       F  0.82359814  0.49412818  0.24937711    -0.22800
F1468       F  0.81010618  0.44851502  0.27107882    -0.20100
F1469       F  0.78990519  0.53211707  0.26706775    -0.19800
F1470       F  0.70991851  0.82054960  0.22162281    -0.19900
F1471       F  0.67829603  0.89421150  0.21883462    -0.20200
F1472       F  0.67334890  0.84257330  0.24015848    -0.22900
O1473       O  0.79942307  0.44823440  0.18155197    -0.71700
O1474       O  0.71168969  0.49866650  0.18190268    -0.71900
O1475       O  0.75427608  0.46995110  0.20374799    -0.71800
O1476       O  0.75745860  0.48128294  0.16007334    -0.71800
O1477       O  0.73898795  0.90581920  0.15781672    -0.71700
O1478       O  0.73895806  0.88818957  0.20229849    -0.71800
O1479       O  0.69578984  0.91476597  0.18101528    -0.71700
O1480       O  0.78231817  0.87480292  0.17878646    -0.71900
V1481       V  0.75547059  0.47289713  0.18180344     1.35200
V1482       V  0.73939889  0.89750074  0.18005433     1.35200
C1483       C  0.80461967  0.90863201  0.18030453     0.77500
C1484       C  0.68903460  0.46425808  0.18075089     0.77600
C1485       C  0.74585879  0.42699356  0.21050232     0.77500
C1486       C  0.74708027  0.44471512  0.15116842     0.77400
O1487       O  0.68913288  0.90646048  0.30809310    -0.71700
O1488       O  0.77863700  0.86875611  0.30553737    -0.71900
O1489       O  0.73408696  0.87785103  0.32863627    -0.71800
O1490       O  0.73332081  0.89368346  0.28511010    -0.71800
O1491       O  0.74973571  0.47954959  0.28688908    -0.71700
O1492       O  0.74499826  0.96317937  0.33183381    -0.71800
O1493       O  0.79041519  0.95366142  0.30916704    -0.71700
O1494       O  0.70391377  0.49885291  0.30902068    -0.71900
V1495       V  0.73401340  0.88833049  0.30693776     1.35200
V1496       V  0.74625492  0.96988106  0.30946750     1.35200
C1497       C  0.68041699  0.46684005  0.30814947     0.77500
C1498       C  0.79970895  0.90559125  0.30705433     0.77600
C1499       C  0.73943564  0.91696069  0.33776810     0.77500
C1500       C  0.74105991  0.93741784  0.27857665     0.77400
O1501       O  0.93706666  0.76154490  0.18043178    -0.71700
O1502       O  0.02536022  0.71639433  0.18095685    -0.71900
O1503       O  0.98174354  0.75158337  0.20220079    -0.71800
O1504       O  0.97996925  0.72273756  0.15917740    -0.71800
O1505       O  0.99480190  0.80520423  0.15407340    -0.71700
O1506       O  0.99746308  0.83423223  0.19807595    -0.71800
O1507       O  0.03951534  0.79919793  0.17605055    -0.71700
O1508       O  0.95326814  0.84401793  0.17612248    -0.71900
V1509       V  0.98131769  0.73964332  0.18058021     1.35200
V1510       V  0.99594322  0.81905305  0.17612443     1.35200
C1511       C  0.93053200  0.81131961  0.17847159     0.77500
C1512       C  0.04758805  0.75096633  0.17868726     0.77600
C1513       C  0.98941224  0.79715141  0.20759485     0.77500
C1514       C  0.98733039  0.75813980  0.14922662     0.77400
O1515       O  0.04472255  0.84327060  0.30436138    -0.71700
O1516       O  0.95794525  0.89336078  0.30151871    -0.71900
O1517       O  0.99904391  0.87895876  0.32469681    -0.71800
O1518       O  0.00392295  0.86066538  0.28103074    -0.71800
O1519       O  0.98780991  0.77730723  0.28316903    -0.71700
O1520       O  0.98080062  0.79709171  0.32743083    -0.71800
O1521       O  0.94162003  0.80983159  0.30326303    -0.71700
O1522       O  0.02692494  0.76133099  0.30729874    -0.71900
V1523       V  0.00115434  0.86743061  0.30293854     1.35200
V1524       V  0.98469820  0.78793776  0.30525381     1.35200
C1525       C  0.05052370  0.79331750  0.30641080     0.77500
C1526       C  0.93506935  0.85935120  0.30184811     0.77600
C1527       C  0.98860651  0.84208968  0.33355488     0.77500
C1528       C  0.99656216  0.81654561  0.27456941     0.77400
O1529       O  0.44117780  0.00175547  0.18001621    -0.71700
O1530       O  0.53050370  0.96596978  0.18160938    -0.71900
O1531       O  0.48456016  0.99207731  0.20243502    -0.71800
O1532       O  0.48687943  0.97151628  0.15908828    -0.71800
O1533       O  0.50026616  0.56993205  0.15505289    -0.71700
O1534       O  0.50222195  0.59265789  0.19929409    -0.71800
O1535       O  0.54486673  0.56267646  0.17721065    -0.71700
O1536       O  0.45751658  0.60402290  0.17735109    -0.71900
V1537       V  0.48598830  0.98449218  0.18067870     1.35200
V1538       V  0.50084185  0.58078833  0.17724685     1.35200
C1539       C  0.43500457  0.57024231  0.17919111     0.77500
C1540       C  0.55124281  0.00368934  0.18097805     0.77600
C1541       C  0.49552369  0.55365126  0.20840809     0.77500
C1542       C  0.49388971  0.00901057  0.14974455     0.77400
O1543       O  0.54581336  0.61295948  0.30505382    -0.71700
O1544       O  0.45713171  0.65426100  0.30178612    -0.71900
O1545       O  0.49859265  0.64627552  0.32505946    -0.71800
O1546       O  0.50462137  0.62495221  0.28178532    -0.71800
O1547       O  0.49103740  0.54065118  0.28422333    -0.71700
O1548       O  0.48285564  0.56342724  0.32837736    -0.71800
O1549       O  0.44397213  0.56943518  0.30412398    -0.71700
O1550       O  0.53027608  0.52997695  0.30848431    -0.71900
V1551       V  0.50134719  0.63301454  0.30349128     1.35200
V1552       V  0.48747870  0.55242316  0.30627692     1.35200
C1553       C  0.55299199  0.56346250  0.30713885     0.77500
C1554       C  0.43556243  0.61775137  0.30224309     0.77600
C1555       C  0.48857062  0.60990895  0.33416674     0.77500
C1556       C  0.49820154  0.58037310  0.27544873     0.77400
O1557       O  0.29622603  0.70831560  0.18203318    -0.71700
O1558       O  0.20696075  0.74996651  0.18154248    -0.71900
O1559       O  0.24914936  0.72268785  0.20362189    -0.71800
O1560       O  0.25451680  0.74014699  0.16015174    -0.71800
O1561       O  0.23908568  0.65725991  0.15628150    -0.71700
O1562       O  0.23685640  0.63754597  0.20093319    -0.71800
O1563       O  0.19429328  0.66496481  0.17920340    -0.71700
O1564       O  0.28173648  0.62528240  0.17793451    -0.71900
V1565       V  0.25149206  0.72860522  0.18177616     1.35200
V1566       V  0.23838095  0.64778295  0.17863614     1.35200
C1567       C  0.30412899  0.65880093  0.18010111     0.77500
C1568       C  0.18542047  0.71367995  0.18022466     0.77600
C1569       C  0.24239046  0.67796740  0.20981041     0.77500
C1570       C  0.24639289  0.70347529  0.15072535     0.77400
O1571       O  0.18812901  0.65299388  0.30616932    -0.71700
O1572       O  0.27795715  0.61562626  0.30385760    -0.71900
O1573       O  0.23268453  0.62141385  0.32645755    -0.71800
O1574       O  0.23287005  0.64233936  0.28327852    -0.71800
O1575       O  0.24802365  0.72609018  0.28609589    -0.71700
O1576       O  0.24268745  0.70669695  0.33070885    -0.71800
O1577       O  0.28908613  0.70005856  0.30857755    -0.71700
O1578       O  0.20184925  0.73727387  0.30847423    -0.71900
V1579       V  0.23311395  0.63473448  0.30500576     1.35200
V1580       V  0.24512521  0.71598528  0.30838775     1.35200
C1581       C  0.17981711  0.70249972  0.30758178     0.77500
C1582       C  0.29876175  0.65240871  0.30628028     0.77600
C1583       C  0.23745271  0.65937909  0.33599074     0.77500
C1584       C  0.24103654  0.68648020  0.27716687     0.77400
O1585       O  0.19089683  0.89078712  0.80455014    -0.71700
O1586       O  0.28008183  0.85311400  0.80234128    -0.71900
O1587       O  0.23525555  0.86164099  0.82523836    -0.71800
O1588       O  0.23526424  0.87889619  0.78177976    -0.71800
O1589       O  0.24852024  0.96364005  0.78420178    -0.71700
O1590       O  0.24761892  0.94601551  0.82863182    -0.71800
O1591       O  0.29211703  0.93783367  0.80541748    -0.71700
O1592       O  0.20442706  0.97535368  0.80717762    -0.71900
V1593       V  0.23561508  0.87275339  0.80357040     1.35200
V1594       V  0.24790369  0.95412154  0.80634890     1.35200
C1595       C  0.18267979  0.94018515  0.80593677     0.77500
C1596       C  0.30143840  0.88964726  0.80327586     0.77600
C1597       C  0.24153531  0.89993272  0.83451468     0.77500
C1598       C  0.24193161  0.92349846  0.77547862     0.77400
O1599       O  0.29065613  0.95509436  0.67928459    -0.71700
O1600       O  0.20147559  0.99533415  0.68192708    -0.71900
O1601       O  0.24651924  0.96717611  0.70220314    -0.71800
O1602       O  0.24576982  0.98709190  0.65894563    -0.71800
O1603       O  0.23056707  0.90383802  0.65528006    -0.71700
O1604       O  0.23412344  0.88217546  0.69940777    -0.71800
O1605       O  0.18898328  0.91057150  0.67927948    -0.71700
O1606       O  0.27608069  0.87182736  0.67535111    -0.71900
V1607       V  0.24591776  0.97455843  0.68048938     1.35200
V1608       V  0.23282047  0.89366921  0.67736519     1.35200
C1609       C  0.29841652  0.90565031  0.67720687     0.77500
C1610       C  0.17993060  0.95901348  0.68103086     0.77600
C1611       C  0.24047844  0.92201120  0.70829090     0.77500
C1612       C  0.23676260  0.95033014  0.64975433     0.77400
O1613       O  0.54868675  0.82783680  0.80426434    -0.71700
O1614       O  0.46184184  0.87905297  0.80162407    -0.71900
O1615       O  0.50480412  0.87134828  0.82441584    -0.71800
O1616       O  0.50605038  0.83929784  0.78154164    -0.71800
O1617       O  0.48682962  0.75886557  0.78585384    -0.71700
O1618       O  0.48883995  0.78954014  0.82971163    -0.71800
O1619       O  0.44524821  0.79808955  0.80728708    -0.71700
O1620       O  0.53031146  0.74692013  0.80837059    -0.71900
V1621       V  0.50509004  0.85281184  0.80308915     1.35200
V1622       V  0.48821717  0.77488109  0.80774946     1.35200
C1623       C  0.55419132  0.77782114  0.80650544     0.77500
C1624       C  0.43864287  0.84639723  0.80390270     0.77600
C1625       C  0.49669434  0.83653849  0.83440690     0.77500
C1626       C  0.49580564  0.79498629  0.77623789     0.77400
O1627       O  0.43465927  0.76528679  0.68065221    -0.71700
O1628       O  0.52189822  0.71697024  0.68194782    -0.71900
O1629       O  0.47777628  0.75029333  0.70309171    -0.71800
O1630       O  0.47855324  0.72870411  0.65961961    -0.71800
O1631       O  0.49380316  0.81181065  0.65586457    -0.71700
O1632       O  0.49552993  0.83241855  0.70019382    -0.71800
O1633       O  0.53779087  0.79961284  0.67806999    -0.71700
O1634       O  0.45153601  0.84770068  0.67795585    -0.71900
V1635       V  0.47847648  0.74198745  0.68126320     1.35200
V1636       V  0.49426804  0.82140874  0.67807754     1.35200
C1637       C  0.42816224  0.81523989  0.67917975     0.77500
C1638       C  0.54478624  0.75042931  0.68007935     0.77600
C1639       C  0.48748142  0.79379946  0.70915683     0.77500
C1640       C  0.48629412  0.76583763  0.65026286     0.77400
O1641       O  0.78970382  0.66957340  0.68085659    -0.71700
O1642       O  0.70384738  0.72584668  0.68034610    -0.71900
O1643       O  0.74354738  0.69095091  0.70222598    -0.71800
O1644       O  0.75020959  0.70837309  0.65879957    -0.71800
O1645       O  0.72973805  0.62836679  0.65494055    -0.71700
O1646       O  0.72738776  0.60788746  0.69933657    -0.71800
O1647       O  0.68638259  0.64345614  0.67810304    -0.71700
O1648       O  0.77085012  0.58913756  0.67627204    -0.71900
V1649       V  0.74662319  0.69704086  0.68044024     1.35200
V1650       V  0.72904208  0.61868183  0.67718240     1.35200
C1651       C  0.79463765  0.61902439  0.67904503     0.77500
C1652       C  0.68029431  0.69337491  0.67942415     0.77600
C1653       C  0.73461453  0.64707061  0.70831560     0.77500
C1654       C  0.73953590  0.67331884  0.64950309     0.77400
O1655       O  0.68794458  0.62687191  0.80471260    -0.71700
O1656       O  0.77593486  0.57859444  0.80416213    -0.71900
O1657       O  0.73023662  0.59570773  0.82614581    -0.71800
O1658       O  0.73297416  0.60606397  0.78251565    -0.71800
O1659       O  0.74617345  0.69098582  0.78406148    -0.71700
O1660       O  0.74905612  0.67701562  0.82858500    -0.71800
O1661       O  0.79084224  0.66281010  0.80469548    -0.71700
O1662       O  0.70486046  0.70895043  0.80804722    -0.71900
V1663       V  0.73205698  0.60336515  0.80441253     1.35200
V1664       V  0.74739810  0.68340552  0.80630370     1.35200
C1665       C  0.68148596  0.67694794  0.80660142     0.77500
C1666       C  0.79847812  0.61338181  0.80437501     0.77600
C1667       C  0.74010178  0.63303520  0.83493591     0.77500
C1668       C  0.73912599  0.65001462  0.77572561     0.77400
O1669       O  0.93000151  0.47361846  0.68331469    -0.71700
O1670       O  0.01999053  0.95354036  0.68225488    -0.71900
O1671       O  0.97548632  0.47011894  0.70503821    -0.71800
O1672       O  0.97548105  0.95723861  0.66014213    -0.71800
O1673       O  0.98529018  0.52642825  0.65693944    -0.71700
O1674       O  0.98661947  0.55483291  0.70097097    -0.71800
O1675       O  0.03008782  0.52720367  0.67886012    -0.71700
O1676       O  0.94180938  0.55812550  0.67907273    -0.71900
V1677       V  0.97527544  0.97202906  0.68165330     1.35200
V1678       V  0.98563049  0.53999050  0.67901002     1.35200
C1679       C  0.92081419  0.52224812  0.68142802     0.77500
C1680       C  0.04110302  0.99020361  0.68029702     0.77600
C1681       C  0.98175775  0.51637189  0.71049457     0.77500
C1682       C  0.98065720  0.47845282  0.65196955     0.77400
O1683       O  0.95834662  0.60852725  0.80427221    -0.71700
O1684       O  0.04703907  0.56553262  0.80418679    -0.71900
O1685       O  0.00114503  0.57317295  0.78281579    -0.71800
O1686       O  0.00469115  0.60487670  0.82562638    -0.71800
O1687       O  0.99096775  0.52241493  0.83135241    -0.71700
O1688       O  0.98586416  0.49076022  0.78751432    -0.71800
O1689       O  0.03063566  0.98390682  0.80785220    -0.71700
O1690       O  0.94488207  0.52608117  0.80989534    -0.71900
V1691       V  0.00258137  0.58640164  0.80435223     1.35200
V1692       V  0.98873720  0.50709909  0.80937572     1.35200
C1693       C  0.93633676  0.57380755  0.80685218     0.77500
C1694       C  0.05421314  0.51611363  0.80635782     0.77600
C1695       C  0.99236473  0.52769385  0.77769357     0.77500
C1696       C  0.99800103  0.57011965  0.83586253     0.77400
O1697       O  0.78430237  0.76295540  0.55564263    -0.71700
O1698       O  0.69545886  0.72158872  0.55322002    -0.71900
O1699       O  0.74042085  0.75983515  0.53328544    -0.71800
O1700       O  0.74008674  0.72030162  0.57550283    -0.71800
O1701       O  0.72634381  0.80173167  0.58264309    -0.71700
O1702       O  0.72516693  0.84169324  0.53937177    -0.71800
O1703       O  0.68222889  0.80339181  0.56025669    -0.71700
O1704       O  0.76867997  0.84417976  0.56197177    -0.71900
V1705       V  0.73978683  0.74267269  0.55456918     1.35200
V1706       V  0.72591138  0.82114275  0.56096221     1.35200
C1707       C  0.79133774  0.81176390  0.55912628     0.77500
C1708       C  0.67364608  0.75652069  0.55623474     0.77600
C1709       C  0.73312403  0.80670821  0.52899337     0.77500
C1710       C  0.73326670  0.75338380  0.58636126     0.77400
O1711       O  0.67441234  0.86034148  0.43412275    -0.71700
O1712       O  0.76287187  0.90545344  0.43520926    -0.71900
O1713       O  0.71909584  0.89486780  0.41288961    -0.71800
O1714       O  0.71784670  0.87468770  0.45646207    -0.71800
O1715       O  0.73218485  0.79052921  0.45327027    -0.71700
O1716       O  0.73563420  0.81260281  0.40905326    -0.71800
O1717       O  0.77689185  0.82105548  0.43235666    -0.71700
O1718       O  0.69081079  0.77797168  0.42994881    -0.71900
V1719       V  0.71875786  0.88229932  0.43458131     1.35200
V1720       V  0.73344592  0.80216145  0.43119904     1.35200
C1721       C  0.66783342  0.81033786  0.43221135     0.77500
C1722       C  0.78492876  0.86986057  0.43400978     0.77600
C1723       C  0.72879420  0.85855704  0.40344422     0.77500
C1724       C  0.72468729  0.82972418  0.46235747     0.77400
O1725       O  0.03390205  0.88465930  0.42981142    -0.71700
O1726       O  0.94323825  0.85489491  0.43174314    -0.71900
O1727       O  0.98856659  0.85877812  0.40894787    -0.71800
O1728       O  0.98880774  0.87694365  0.45241317    -0.71800
O1729       O  0.97733151  0.96248362  0.45030567    -0.71700
O1730       O  0.97940903  0.94422660  0.40570130    -0.71800
O1731       O  0.93400040  0.94051499  0.42845832    -0.71700
O1732       O  0.02257730  0.97018772  0.42755865    -0.71900
V1733       V  0.98843585  0.87045438  0.43063586     1.35200
V1734       V  0.97858568  0.95273557  0.42803789     1.35200
C1735       C  0.04338862  0.93342216  0.42845553     0.77500
C1736       C  0.92316709  0.89345212  0.43061083     0.77600
C1737       C  0.98389483  0.89740103  0.39973453     0.77500
C1738       C  0.98285506  0.92188566  0.45887695     0.77400
O1739       O  0.92972950  0.94181727  0.55546633    -0.71700
O1740       O  0.01918939  0.98010818  0.55352495    -0.71900
O1741       O  0.97401421  0.95530883  0.53272892    -0.71800
O1742       O  0.97439841  0.97058082  0.57619367    -0.71800
O1743       O  0.98638148  0.88555499  0.57895355    -0.71700
O1744       O  0.98817042  0.87076667  0.53427688    -0.71800
O1745       O  0.03102892  0.89502859  0.55621134    -0.71700
O1746       O  0.94372789  0.85719475  0.55702583    -0.71900
V1747       V  0.97454106  0.96028928  0.55453129     1.35200
V1748       V  0.98700270  0.87871484  0.55658420     1.35200
C1749       C  0.92185193  0.89208240  0.55613455     0.77500
C1750       C  0.04030445  0.94327496  0.55492002     0.77600
C1751       C  0.98129136  0.91143431  0.52597423     0.77500
C1752       C  0.98087225  0.93187989  0.58505412     0.77400
O1753       O  0.17831549  0.57859178  0.43086257    -0.71700
O1754       O  0.26559866  0.62734171  0.43125214    -0.71900
O1755       O  0.22058326  0.61833248  0.40966771    -0.71800
O1756       O  0.22325795  0.59101784  0.45258647    -0.71800
O1757       O  0.24102187  0.50940448  0.44824881    -0.71700
O1758       O  0.23598724  0.53620298  0.40430082    -0.71800
O1759       O  0.28129249  0.54513870  0.42590635    -0.71700
O1760       O  0.19549803  0.49639090  0.42664885    -0.71900
V1761       V  0.22214508  0.60212031  0.43099565     1.35200
V1762       V  0.23797633  0.52322611  0.42632694     1.35200
C1763       C  0.17233644  0.52852022  0.42897891     0.77500
C1764       C  0.28831337  0.59394296  0.42859920     0.77600
C1765       C  0.22873762  0.58326794  0.39957193     0.77500
C1766       C  0.23387367  0.54732235  0.45784976     0.77400
O1767       O  0.28559705  0.50992645  0.55422949    -0.71700
O1768       O  0.19830891  0.95298808  0.55337269    -0.71900
O1769       O  0.24255314  0.48983593  0.53199261    -0.71800
O1770       O  0.23856921  0.96799822  0.57691204    -0.71800
O1771       O  0.22611342  0.56533347  0.57794462    -0.71700
O1772       O  0.22707457  0.57375628  0.53319843    -0.71800
O1773       O  0.18304661  0.54940288  0.55538311    -0.71700
O1774       O  0.26950662  0.59340026  0.55573988    -0.71900
V1775       V  0.24217553  0.97550805  0.55517110     1.35200
V1776       V  0.22674073  0.56889621  0.55552921     1.35200
C1777       C  0.29245700  0.56007865  0.55510703     0.77500
C1778       C  0.17636559  0.98882156  0.55353779     0.77600
C1779       C  0.23480713  0.53225516  0.52502244     0.77500
C1780       C  0.23053805  0.00809011  0.58527538     0.77400
O1781       O  0.42650287  0.70560507  0.55435012    -0.71700
O1782       O  0.51396889  0.75491049  0.55398119    -0.71900
O1783       O  0.47205275  0.72461833  0.53235815    -0.71800
O1784       O  0.46832329  0.73983017  0.57590540    -0.71800
O1785       O  0.48733866  0.65898133  0.57874410    -0.71700
O1786       O  0.48573332  0.63990969  0.53422776    -0.71800
O1787       O  0.52935113  0.67086214  0.55495759    -0.71700
O1788       O  0.44357617  0.62366664  0.55798481    -0.71900
V1789       V  0.47039448  0.72958030  0.55420183     1.35200
V1790       V  0.48606518  0.64981997  0.55646723     1.35200
C1791       C  0.42031485  0.65558768  0.55624925     0.77500
C1792       C  0.53656214  0.72033786  0.55427106     0.77600
C1793       C  0.47943784  0.68045768  0.52577086     0.77500
C1794       C  0.47891200  0.70408413  0.58485056     0.77400
O1795       O  0.53306034  0.67330246  0.43051604    -0.71700
O1796       O  0.44732625  0.61576128  0.42951461    -0.71900
O1797       O  0.49340037  0.63735113  0.40824237    -0.71800
O1798       O  0.48750434  0.64747950  0.45182359    -0.71800
O1799       O  0.47160745  0.73122500  0.45051183    -0.71700
O1800       O  0.47145356  0.71643488  0.40580454    -0.71800
O1801       O  0.42940235  0.69830780  0.42916790    -0.71700
O1802       O  0.51349754  0.75350904  0.42715823    -0.71900
V1803       V  0.49006852  0.64507660  0.42997082     1.35200
V1804       V  0.47193152  0.72343756  0.42818542     1.35200
C1805       C  0.53774083  0.72407496  0.42901137     0.77500
C1806       C  0.42361065  0.64819620  0.42926913     0.77600
C1807       C  0.48185316  0.67281474  0.39950236     0.77500
C1808       C  0.47912409  0.69058299  0.45869471     0.77400
O1809       O  0.18695527  0.84727509  0.93082207    -0.71700
O1810       O  0.27481260  0.89468501  0.93219557    -0.71900
O1811       O  0.23131016  0.88210624  0.90985827    -0.71800
O1812       O  0.23012950  0.86370616  0.95346977    -0.71800
O1813       O  0.24473830  0.77959856  0.95068342    -0.71700
O1814       O  0.24863174  0.79986152  0.90626211    -0.71800
O1815       O  0.28978209  0.81063240  0.92973021    -0.71700
O1816       O  0.20406604  0.76496732  0.92706836    -0.71900
V1817       V  0.23104752  0.87033207  0.93153991     1.35200
V1818       V  0.24645486  0.79037635  0.92849169     1.35200
C1819       C  0.18079582  0.79733460  0.92858302     0.77500
C1820       C  0.29725842  0.85982397  0.93115405     0.77600
C1821       C  0.24054737  0.84514419  0.90056236     0.77500
C1822       C  0.23707112  0.81913750  0.95963255     0.77400
O1823       O  0.29080030  0.77917122  0.05457516    -0.71700
O1824       O  0.20373594  0.72911131  0.05350776    -0.71900
O1825       O  0.24633361  0.76650084  0.03245702    -0.71800
O1826       O  0.24827464  0.73811584  0.07552308    -0.71800
O1827       O  0.23140496  0.81912026  0.08105733    -0.71700
O1828       O  0.22950293  0.84859432  0.03702235    -0.71800
O1829       O  0.18760562  0.81115071  0.05857114    -0.71700
O1830       O  0.27319193  0.86027261  0.05964901    -0.71900
V1831       V  0.24704650  0.75487920  0.05413352     1.35200
V1832       V  0.23082574  0.83329648  0.05899504     1.35200
C1833       C  0.29670354  0.82888607  0.05736388     0.77500
C1834       C  0.18077306  0.76230134  0.05578647     0.77600
C1835       C  0.23711424  0.81135177  0.02725934     0.77500
C1836       C  0.23975396  0.77254661  0.08577132     0.77400
O1837       O  0.74677564  0.53719440  0.90681106    -0.71700
O1838       O  0.74942965  0.00398447  0.95185682    -0.71900
O1839       O  0.70566217  0.99253981  0.92942750    -0.71800
O1840       O  0.78995362  0.54743218  0.92927191    -0.71800
O1841       O  0.77625419  0.63169918  0.93186663    -0.71700
O1842       O  0.68768750  0.58841056  0.93237386    -0.71800
O1843       O  0.73296701  0.60301142  0.95404100    -0.71700
O1844       O  0.73086997  0.62018295  0.91037498    -0.71900
V1845       V  0.74895292  0.01436128  0.92977245     1.35200
V1846       V  0.73216429  0.60926292  0.93210120     1.35200
C1847       C  0.73913276  0.58249200  0.90108463     0.77500
C1848       C  0.73976359  0.55809849  0.96006764     0.77600
C1849       C  0.68051546  0.53875337  0.93047304     0.77500
C1850       C  0.79835456  0.59633417  0.93057321     0.77400
O1851       O  0.73065175  0.55536193  0.08108700    -0.71700
O1852       O  0.73358032  0.58514719  0.03720879    -0.71900
O1853       O  0.68850414  0.55154253  0.05771162    -0.71800
O1854       O  0.77548544  0.59217093  0.06052869    -0.71800
O1855       O  0.79074601  0.51017326  0.05478714    -0.71700
O1856       O  0.70413637  0.96775157  0.05512623    -0.71800
O1857       O  0.75029841  0.99585206  0.03450562    -0.71700
O1858       O  0.74715737  0.97514901  0.07774136    -0.71900
V1859       V  0.73238314  0.56950003  0.05909524     1.35200
V1860       V  0.74834621  0.98801006  0.05624137     1.35200
C1861       C  0.73872602  0.50901933  0.08603991     0.77500
C1862       C  0.73978325  0.54695993  0.02757952     0.77600
C1863       C  0.68268463  0.00412668  0.05651685     0.77500
C1864       C  0.79805405  0.55913415  0.05767968     0.77400
O1865       O  0.48620290  0.97298277  0.94926631    -0.71700
O1866       O  0.48979220  0.95117964  0.90485605    -0.71900
O1867       O  0.44396091  0.94508657  0.92740825    -0.71800
O1868       O  0.53174651  0.98212735  0.92670051    -0.71800
O1869       O  0.54485849  0.89768308  0.92933180    -0.71700
O1870       O  0.45575630  0.86087295  0.93150243    -0.71800
O1871       O  0.50072283  0.86662730  0.90877938    -0.71700
O1872       O  0.50029202  0.88891406  0.95208161    -0.71900
V1873       V  0.48817801  0.96132111  0.92710051     1.35200
V1874       V  0.50017887  0.88020101  0.93032961     1.35200
C1875       C  0.49276070  0.93383509  0.95819151     0.77500
C1876       C  0.49560266  0.90422453  0.89929099     0.77600
C1877       C  0.43458489  0.89721179  0.92983321     0.77500
C1878       C  0.55340153  0.94681549  0.92803671     0.77400
O1879       O  0.49343849  0.90461044  0.07841754    -0.71700
O1880       O  0.49500531  0.89027082  0.03390557    -0.71900
O1881       O  0.53744868  0.91703107  0.05567362    -0.71800
O1882       O  0.45067775  0.87461373  0.05663275    -0.71800
O1883       O  0.43535438  0.95856047  0.05533256    -0.71700
O1884       O  0.52399627  0.00136311  0.05294442    -0.71800
O1885       O  0.47907333  0.97381443  0.03226584    -0.71700
O1886       O  0.48044456  0.98951830  0.07595889    -0.71900
V1887       V  0.49374055  0.89821629  0.05612801     1.35200
V1888       V  0.47986540  0.97916541  0.05417370     1.35200
C1889       C  0.48791434  0.95069664  0.08459999     0.77500
C1890       C  0.48762221  0.93038518  0.02553693     0.77600
C1891       C  0.54583931  0.96584058  0.05423090     0.77500
C1892       C  0.42816312  0.90848284  0.05585943     0.77400
O1893       O  0.04651400  0.65091340  0.92925355    -0.71700
O1894       O  0.95846214  0.60495753  0.93195944    -0.71900
O1895       O  0.00304905  0.61289125  0.90904863    -0.71800
O1896       O  0.00246407  0.63925586  0.95226627    -0.71800
O1897       O  0.98503774  0.72128310  0.94902536    -0.71700
O1898       O  0.98950749  0.69644519  0.90461701    -0.71800
O1899       O  0.94403506  0.68753597  0.92719761    -0.71700
O1900       O  0.03024828  0.73354789  0.92630742    -0.71900
V1901       V  0.00237481  0.62864402  0.93054453     1.35200
V1902       V  0.98753752  0.70817502  0.92684748     1.35200
C1903       C  0.05328271  0.70081719  0.92760947     0.77500
C1904       C  0.93613154  0.63909230  0.92986722     0.77600
C1905       C  0.99642850  0.64931667  0.89945587     0.77500
C1906       C  0.99324855  0.68364973  0.95817313     0.77400
O1907       O  0.99214601  0.64557213  0.07844030    -0.71700
O1908       O  0.99565167  0.63547766  0.03367817    -0.71900
O1909       O  0.03693220  0.66202883  0.05603237    -0.71800
O1910       O  0.95067346  0.61567190  0.05615122    -0.71800
O1911       O  0.93433701  0.69891430  0.05527981    -0.71700
O1912       O  0.02197725  0.74569504  0.05395609    -0.71800
O1913       O  0.97846484  0.71846306  0.03263364    -0.71700
O1914       O  0.97758038  0.72988990  0.07634939    -0.71900
V1915       V  0.99344241  0.64115707  0.05604022     1.35200
V1916       V  0.97831027  0.72152404  0.05457433     1.35200
C1917       C  0.98514400  0.69081164  0.08483545     0.77500
C1918       C  0.98802176  0.67626324  0.02558971     0.77600
C1919       C  0.04453739  0.71135418  0.05492256     0.77500
C1920       C  0.92757809  0.64877782  0.05585978     0.77400
C1921       C  0.96553436  0.70423164  0.00048206    -0.05700
C1922       C  0.99003575  0.67681049  0.00830368     0.00200
C1923       C  0.01699508  0.65688312  0.99966704    -0.08300
C1924       C  0.01763498  0.66298207  0.98334190    -0.05700
C1925       C  0.99261387  0.68869900  0.97544006     0.00200
C1926       C  0.96625674  0.71052973  0.98413571    -0.08300
C1927       C  0.93857201  0.73861746  0.97625219     0.62100
H1928       H  0.94549005  0.72041067  0.00735270     0.12800
H1929       H  0.03766390  0.64665861  0.97649460     0.12800
C1930       C  0.04530748  0.63055120  0.00757016     0.62400
F1931       F  0.91479940  0.75464356  0.98691354    -0.22800
F1932       F  0.92485911  0.70372123  0.96555613    -0.20100
F1933       F  0.94971713  0.78441397  0.96864411    -0.19800
F1934       F  0.03566148  0.58239474  0.01438167    -0.19900
F1935       F  0.05708119  0.66507159  0.01892451    -0.20200
F1936       F  0.07022588  0.61900948  0.99704983    -0.22900
C1937       C  0.51508531  0.90793878  0.98336976    -0.05700
C1938       C  0.49190096  0.93794462  0.97541758     0.00200
C1939       C  0.46681011  0.96404473  0.98398271    -0.08300
C1940       C  0.46592794  0.95901084  0.00034658    -0.05700
C1941       C  0.48902388  0.92862617  0.00827875     0.00200
C1942       C  0.51424810  0.90283303  0.99969517    -0.08300
C1943       C  0.54054304  0.87102815  0.00760943     0.62100
H1944       H  0.53382074  0.88762232  0.97658723     0.12800
H1945       H  0.44697581  0.97885256  0.00714297     0.12800
C1946       C  0.44061675  0.99554091  0.97593891     0.62400
F1947       F  0.56421101  0.85376133  0.99705729    -0.22800
F1948       F  0.52747897  0.82558143  0.01467135    -0.20100
F1949       F  0.55505639  0.90321256  0.01874568    -0.19800
F1950       F  0.42575086  0.96259650  0.96509689    -0.19900
F1951       F  0.45390054  0.04001535  0.96846418    -0.20200
F1952       F  0.41726769  0.01417871  0.98645652    -0.22900
C1953       C  0.62908310  0.02692187  0.04672327    -0.05700
C1954       C  0.64803329  0.99204424  0.05563311     0.00200
C1955       C  0.63320492  0.95036098  0.06442290    -0.08300
C1956       C  0.59970916  0.94459025  0.06378194    -0.05700
C1957       C  0.58061774  0.97886530  0.05470678     0.00200
C1958       C  0.59548876  0.02091799  0.04598181    -0.08300
C1959       C  0.57640411  0.05831125  0.03565081     0.62100
H1960       H  0.64098478  0.05905086  0.04025719     0.12800
H1961       H  0.58804494  0.91284581  0.07049429     0.12800
C1962       C  0.65024006  0.43038531  0.07941755     0.62400
F1963       F  0.59615558  0.09311163  0.02719766    -0.22800
F1964       F  0.55560912  0.08960113  0.04478114    -0.20100
F1965       F  0.55902959  0.02793157  0.02510681    -0.19800
F1966       F  0.66627265  0.47005665  0.08769629    -0.19900
F1967       F  0.67230482  0.39421095  0.07295969    -0.20200
F1968       F  0.63068168  0.40232071  0.08986945    -0.22900
C1969       C  0.83630361  0.63362085  0.05237564    -0.05700
C1970       C  0.83170347  0.57963575  0.05715822     0.00200
C1971       C  0.85862327  0.54883214  0.06165901    -0.08300
C1972       C  0.88916875  0.57355086  0.06120132    -0.05700
C1973       C  0.89387237  0.62767038  0.05634711     0.00200
C1974       C  0.86679758  0.65828192  0.05177006    -0.08300
C1975       C  0.86963445  0.71635492  0.04605181     0.62100
H1976       H  0.81548952  0.65666882  0.04897694     0.12800
H1977       H  0.90981463  0.55031337  0.06471252     0.12800
C1978       C  0.85525118  0.49074471  0.06728274     0.62400
F1979       F  0.84055057  0.73644262  0.04107302    -0.22800
F1980       F  0.89125396  0.71878373  0.03353989    -0.20100
F1981       F  0.87984987  0.74958634  0.05807042    -0.19800
F1982       F  0.84548607  0.45775516  0.05512216    -0.19900
F1983       F  0.83287490  0.48841202  0.07947978    -0.20200
F1984       F  0.88398826  0.47035673  0.07260228    -0.22900
C1985       C  0.85508010  0.56698415  0.92666803    -0.05700
C1986       C  0.83345843  0.60953946  0.93050429     0.00200
C1987       C  0.84613473  0.66117879  0.93445715    -0.08300
C1988       C  0.87973470  0.66779777  0.93442109    -0.05700
C1989       C  0.90124714  0.62526063  0.93060231     0.00200
C1990       C  0.88867490  0.57364302  0.92669955    -0.08300
C1991       C  0.91021188  0.52575332  0.92238168     0.62100
H1992       H  0.84545633  0.52765179  0.92361449     0.12800
H1993       H  0.88959738  0.70707397  0.93740812     0.12800
C1994       C  0.82479696  0.70938977  0.93873886     0.62400
F1995       F  0.92789037  0.51111400  0.93517515    -0.22800
F1996       F  0.93079871  0.53943373  0.91016134    -0.20100
F1997       F  0.89277261  0.48083865  0.91770313    -0.19800
F1998       F  0.84248788  0.75485874  0.94269222    -0.19900
F1999       F  0.80520231  0.69679990  0.95148197    -0.20200
F2000       F  0.80618787  0.72277278  0.92613102    -0.22900
C2001       C  0.59550486  0.01338282  0.92074544    -0.05700
C2002       C  0.58753391  0.96440685  0.92829687     0.00200
C2003       C  0.61142556  0.93686588  0.93675517    -0.08300
C2004       C  0.64218002  0.96006511  0.93754740    -0.05700
C2005       C  0.64987624  0.00930202  0.93023184     0.00200
C2006       C  0.62641675  0.03622211  0.92144033    -0.08300
C2007       C  0.63418560  0.08752519  0.91236622     0.62100
H2008       H  0.57719308  0.03382515  0.91421849     0.12800
H2009       H  0.66275474  0.44487008  0.94181895     0.12800
C2010       C  0.60470133  0.88397717  0.94521031     0.62400
F2011       F  0.60870864  0.10396404  0.90340292    -0.22800
F2012       F  0.66032410  0.07843201  0.90239098    -0.20100
F2013       F  0.64119149  0.12930299  0.92262642    -0.19800
F2014       F  0.59748235  0.84377557  0.93446826    -0.19900
F2015       F  0.57921325  0.89081240  0.95568692    -0.20200
F2016       F  0.63728367  0.36784312  0.95157730    -0.22900
C2017       C  0.74959107  0.59972540  0.98593014    -0.05700
C2018       C  0.74018069  0.55361228  0.97732060     0.00200
C2019       C  0.73608690  0.99345383  0.98665021    -0.08300
C2020       C  0.73532651  0.99663298  0.00304488    -0.05700
C2021       C  0.73898707  0.55328894  0.01039141     0.00200
C2022       C  0.74948320  0.60033861  0.00240026    -0.08300
C2023       C  0.76145734  0.65015899  0.01106789     0.62100
H2024       H  0.75738389  0.63535534  0.97959916     0.12800
H2025       H  0.72784741  0.96152045  0.00970957     0.12800
C2026       C  0.72710797  0.94050008  0.97863137     0.62400
F2027       F  0.77336961  0.68916797  0.00092311    -0.22800
F2028       F  0.78593526  0.63566931  0.02088845    -0.20100
F2029       F  0.73651185  0.67319162  0.01977681    -0.19800
F2030       F  0.75350573  0.92012814  0.97039449    -0.19900
F2031       F  0.70219919  0.94915729  0.96851189    -0.20200
F2032       F  0.71722231  0.90144497  0.98924577    -0.22900
C2033       C  0.12475383  0.78603668  0.04987239    -0.05700
C2034       C  0.14642355  0.74651653  0.05503735     0.00200
C2035       C  0.13448112  0.69586851  0.06018303    -0.08300
C2036       C  0.10110829  0.68691520  0.06003744    -0.05700
C2037       C  0.07925414  0.72650464  0.05492800     0.00200
C2038       C  0.09136551  0.77714592  0.04967062    -0.08300
C2039       C  0.06962964  0.82168413  0.04372224     0.62100
H2040       H  0.13433493  0.82455167  0.04596366     0.12800
H2041       H  0.09182227  0.64838167  0.06406536     0.12800
C2042       C  0.15654109  0.65193015  0.06620736     0.62400
F2043       F  0.08693800  0.86577584  0.03819557    -0.22800
F2044       F  0.04951110  0.84000459  0.05574254    -0.20100
F2045       F  0.05153647  0.80197941  0.03153903    -0.19800
F2046       F  0.17465238  0.67238878  0.07828683    -0.19900
F2047       F  0.17674148  0.63372190  0.05421377    -0.20200
F2048       F  0.13953727  0.60768211  0.07184713    -0.22900
C2049       C  0.35302796  0.82552950  0.04744971    -0.05700
C2050       C  0.33015995  0.85050393  0.05741324     0.00200
C2051       C  0.33958411  0.89595074  0.06668523    -0.08300
C2052       C  0.37160222  0.91445714  0.06549287    -0.05700
C2053       C  0.39442753  0.88893924  0.05566023     0.00200
C2054       C  0.38497100  0.84400268  0.04629013    -0.08300
C2055       C  0.40809164  0.81642196  0.03470964     0.62100
H2056       H  0.34550117  0.79128302  0.04034417     0.12800
H2057       H  0.37931694  0.94880299  0.07250337     0.12800
C2058       C  0.31651854  0.92418431  0.07815349     0.62400
F2059       F  0.39241601  0.78060769  0.02491745    -0.22800
F2060       F  0.43089425  0.78739353  0.04265358    -0.20100
F2061       F  0.42315903  0.85490788  0.02542798    -0.19800
F2062       F  0.30175917  0.88628540  0.08774802    -0.19900
F2063       F  0.29352037  0.95233204  0.07007343    -0.20200
F2064       F  0.33215400  0.96099739  0.08765497    -0.22900
C2065       C  0.35173407  0.83870377  0.93989461    -0.05700
C2066       C  0.33180607  0.87382200  0.93158902     0.00200
C2067       C  0.34584208  0.91516105  0.92234663    -0.08300
C2068       C  0.37943191  0.92127405  0.92231055    -0.05700
C2069       C  0.39950409  0.88583770  0.93049617     0.00200
C2070       C  0.38544069  0.84313181  0.93930836    -0.08300
C2071       C  0.40550654  0.80216119  0.94800756     0.62100
H2072       H  0.34050806  0.80646903  0.94659718     0.12800
H2073       H  0.39042136  0.95316442  0.91540279     0.12800
C2074       C  0.32585828  0.94997891  0.91169794     0.62400
F2075       F  0.38659256  0.76600471  0.95642570    -0.22800
F2076       F  0.42517289  0.82870862  0.95842084    -0.20100
F2077       F  0.42407344  0.77231471  0.93742217    -0.19800
F2078       F  0.30420325  0.98073782  0.92047967    -0.19900
F2079       F  0.30939252  0.91687050  0.90149582    -0.20200
F2080       F  0.34467992  0.98508822  0.90286386    -0.22900
C2081       C  0.14295150  0.72293421  0.93458375    -0.05700
C2082       C  0.14768665  0.77478167  0.92815530     0.00200
C2083       C  0.12197468  0.80022042  0.92055275    -0.08300
C2084       C  0.09192322  0.77383104  0.92041656    -0.05700
C2085       C  0.08683940  0.72250277  0.92728224     0.00200
C2086       C  0.11312380  0.69607191  0.93426881    -0.08300
C2087       C  0.11002091  0.64031197  0.94159516     0.62100
H2088       H  0.16313726  0.70333257  0.93995729     0.12800
H2089       H  0.07199347  0.79340070  0.91481985     0.22400
C2090       C  0.12647446  0.85363883  0.91204867     0.62400
F2091       F  0.13842887  0.62346903  0.94815271    -0.22800
F2092       F  0.10202508  0.60253316  0.93027888    -0.20100
F2093       F  0.08658274  0.64136430  0.95332575    -0.19800
F2094       F  0.15164545  0.84911371  0.90125471    -0.19900
F2095       F  0.13308074  0.89455380  0.92265333    -0.20200
F2096       F  0.09925937  0.86835382  0.90407653    -0.22900
C2097       C  0.24827318  0.86052792  0.98538795    -0.05700
C2098       C  0.23663991  0.81555663  0.97694917     0.00200
C2099       C  0.22272903  0.77158503  0.98518515    -0.08300
C2100       C  0.22267607  0.77290387  0.00164428    -0.05700
C2101       C  0.23495401  0.81732122  0.01007780     0.00200
C2102       C  0.24742751  0.86244322  0.00186669    -0.08300
C2103       C  0.26021246  0.91183819  0.01041922     0.62100
H2104       H  0.25812108  0.89445430  0.97890262     0.12800
H2105       H  0.21292174  0.73890396  0.00813696     0.12800
C2106       C  0.20674383  0.72476998  0.97671845     0.62400
F2107       F  0.27363893  0.94926121  0.00021349    -0.22800
F2108       F  0.28365849  0.89640793  0.02070720    -0.20100
F2109       F  0.23530519  0.93700590  0.01864479    -0.19800
F2110       F  0.22949350  0.69535205  0.96820910    -0.19900
F2111       F  0.18396616  0.74474517  0.96673279    -0.20200
F2112       F  0.19135715  0.68975153  0.98700986    -0.22900
C2113       C  0.49556973  0.72361780  0.50107907    -0.05700
C2114       C  0.48093972  0.67905389  0.50856116     0.00200
C2115       C  0.46501887  0.63933033  0.49962561    -0.08300
C2116       C  0.46415558  0.64595494  0.48334910    -0.05700
C2117       C  0.47830518  0.69097175  0.47589929     0.00200
C2118       C  0.49478023  0.73012055  0.48479675    -0.08300
C2119       C  0.51232149  0.77725539  0.47711368     0.62100
H2120       H  0.50757896  0.75368252  0.50818886     0.12800
H2121       H  0.45241820  0.61569920  0.47623209     0.12800
C2122       C  0.44818576  0.59139459  0.50724114     0.62400
F2123       F  0.52880003  0.80826857  0.48786794    -0.22800
F2124       F  0.49050020  0.81055640  0.46991092    -0.20100
F2125       F  0.53438067  0.75784126  0.46607989    -0.19800
F2126       F  0.42586580  0.60979743  0.51828063    -0.19900
F2127       F  0.47051090  0.55893938  0.51440628    -0.20200
F2128       F  0.43216703  0.55980798  0.49645241    -0.22900
C2129       C  0.38331739  0.58061566  0.54949746    -0.05700
C2130       C  0.38717067  0.63288008  0.55601815     0.00200
C2131       C  0.36008851  0.65972480  0.56271240    -0.08300
C2132       C  0.33006687  0.63346157  0.56243256    -0.05700
C2133       C  0.32597911  0.58156763  0.55564736     0.00200
C2134       C  0.35318112  0.55456387  0.54901177    -0.08300
C2135       C  0.35058016  0.49940599  0.54106899     0.62100
H2136       H  0.40431835  0.56029791  0.54458133     0.12800
H2137       H  0.30927573  0.65379288  0.56755871     0.12800
C2138       C  0.36281904  0.71511633  0.57049504     0.62400
F2139       F  0.37960322  0.48270813  0.53440041    -0.22800
F2140       F  0.32835700  0.50170814  0.52929259    -0.20100
F2141       F  0.34114840  0.46091657  0.55191129    -0.19800
F2142       F  0.37083014  0.75357403  0.55939561    -0.19900
F2143       F  0.38619444  0.71383367  0.58174359    -0.20200
F2144       F  0.33423523  0.73104270  0.57776525    -0.22900
C2145       C  0.34399887  0.57368943  0.43594700    -0.05700
C2146       C  0.32258173  0.60965332  0.42886417     0.00200
C2147       C  0.33466797  0.65637672  0.42131515    -0.08300
C2148       C  0.36794836  0.66584851  0.42137593    -0.05700
C2149       C  0.38948049  0.63055923  0.42873456     0.00200
C2150       C  0.37734269  0.58333174  0.43610943    -0.08300
C2151       C  0.39906562  0.54404323  0.44444345     0.62100
H2152       H  0.33420698  0.53772240  0.44150735     0.12800
H2153       H  0.37748515  0.70165528  0.41564035     0.12800
C2154       C  0.31278138  0.69531343  0.41289564     0.62400
F2155       F  0.38178891  0.50340944  0.45190341    -0.22800
F2156       F  0.41630775  0.57152832  0.45563854    -0.20100
F2157       F  0.42005348  0.51975129  0.43374584    -0.19800
F2158       F  0.29223857  0.72062829  0.42359594    -0.19900
F2159       F  0.29498420  0.66723766  0.40200443    -0.20200
F2160       F  0.32997235  0.73522491  0.40507069    -0.22900
C2161       C  0.22906828  0.49285668  0.48189875    -0.05700
C2162       C  0.23735055  0.54209588  0.47488845     0.00200
C2163       C  0.24725848  0.58653800  0.48432927    -0.08300
C2164       C  0.24529308  0.58162568  0.50062930    -0.05700
C2165       C  0.23573307  0.53320498  0.50773533     0.00200
C2166       C  0.22853990  0.48706941  0.49825250    -0.08300
C2167       C  0.23014480  0.91802119  0.50615418     0.62100
H2168       H  0.22242981  0.45919096  0.47442363     0.12800
H2169       H  0.25174587  0.61568668  0.50800756     0.12800
C2170       C  0.26114174  0.63837287  0.47738718     0.62400
F2171       F  0.22322493  0.87990161  0.49472651    -0.22800
F2172       F  0.20456290  0.91905563  0.51677208    -0.20100
F2173       F  0.25763518  0.90098394  0.51347970    -0.19800
F2174       F  0.23699011  0.66927820  0.47109939    -0.19900
F2175       F  0.28388609  0.62568074  0.46587664    -0.20200
F2176       F  0.27614637  0.66978935  0.48856853    -0.22900
C2177       C  0.08780396  0.99012667  0.54352766    -0.05700
C2178       C  0.07519767  0.95486452  0.55486844     0.00200
C2179       C  0.09630336  0.92887991  0.56533731    -0.08300
C2180       C  0.12945273  0.93930176  0.56398609    -0.05700
C2181       C  0.14195875  0.97490266  0.55276491     0.00200
C2182       C  0.12102289  0.00048648  0.54220926    -0.08300
C2183       C  0.12644978  0.56408958  0.53594294     0.62100
H2184       H  0.06652206  0.52464966  0.54174689     0.12800
H2185       H  0.14591774  0.92071244  0.57198506     0.12800
C2186       C  0.08406499  0.89160082  0.57825216     0.62400
F2187       F  0.10089715  0.58152595  0.52717966    -0.22800
F2188       F  0.15102428  0.54891190  0.52564327    -0.20100
F2189       F  0.13634192  0.60737194  0.54502730    -0.19800
F2190       F  0.07349131  0.84327850  0.57185533    -0.19900
F2191       F  0.05910352  0.91632013  0.58656293    -0.20200
F2192       F  0.10785101  0.87944485  0.58873906    -0.22900
C2193       C  0.09636557  0.93903264  0.44119759    -0.05700
C2194       C  0.07771755  0.94912841  0.42805865     0.00200
C2195       C  0.08729319  0.50353708  0.41630555    -0.08300
C2196       C  0.11872096  0.52401024  0.41738182    -0.05700
C2197       C  0.13918167  0.50732747  0.42917224     0.00200
C2198       C  0.12758717  0.96081325  0.44249641    -0.08300
C2199       C  0.14676189  0.95097986  0.45710952     0.62100
H2200       H  0.08581780  0.91559340  0.45068153     0.12800
H2201       H  0.12776862  0.55297466  0.40887292     0.12800
C2202       C  0.06664077  0.52092946  0.40278399     0.62400
F2203       F  0.12945328  0.92143523  0.46812463    -0.22800
F2204       F  0.16197055  0.49403806  0.46121558    -0.20100
F2205       F  0.17448792  0.92245162  0.45327719    -0.19800
F2206       F  0.04240724  0.55512250  0.40816139    -0.19900
F2207       F  0.05327255  0.47580307  0.39572620    -0.20200
F2208       F  0.08443853  0.54833685  0.39148052    -0.22900
C2209       C  0.00707940  0.89464422  0.48345143    -0.05700
C2210       C  0.98289237  0.92428161  0.47608156     0.00200
C2211       C  0.95775166  0.94811513  0.48513916    -0.08300
C2212       C  0.95739040  0.94016114  0.50138585    -0.05700
C2213       C  0.98153053  0.91029603  0.50875130     0.00200
C2214       C  0.00716626  0.88788185  0.49972624    -0.08300
C2215       C  0.03506246  0.85897471  0.50721920     0.62100
H2216       H  0.02608611  0.87665848  0.47625718     0.12800
H2217       H  0.93833782  0.95800943  0.50857457     0.12800
C2218       C  0.93137289  0.98118158  0.47775829     0.62400
F2219       F  0.05878105  0.84471289  0.49633040    -0.22800
F2220       F  0.02423096  0.81208608  0.51435778    -0.20100
F2221       F  0.04880376  0.89261998  0.51824620    -0.19800
F2222       F  0.91599392  0.95038586  0.46659458    -0.19900
F2223       F  0.94462212  0.02667107  0.47080077    -0.20200
F2224       F  0.90847319  0.99840801  0.48871053    -0.22900
C2225       C  0.83894109  0.84588190  0.44270694    -0.05700
C2226       C  0.81970974  0.88212427  0.43440177     0.00200
C2227       C  0.83453290  0.92186722  0.42487654    -0.08300
C2228       C  0.86835334  0.92330683  0.42385963    -0.05700
C2229       C  0.88770520  0.88604111  0.43184703     0.00200
C2230       C  0.87271420  0.84691351  0.44162112    -0.08300
C2231       C  0.89193677  0.80664594  0.45098650     0.62100
H2232       H  0.82703735  0.81543014  0.44984209     0.12800
H2233       H  0.88003132  0.95341389  0.41653192     0.12800
C2234       C  0.81483055  0.96099397  0.41536594     0.62400
F2235       F  0.87240200  0.77552519  0.46068489    -0.22800
F2236       F  0.91347307  0.83398300  0.46029092    -0.20100
F2237       F  0.90845865  0.77180406  0.44091284    -0.19800
F2238       F  0.79606751  0.99301584  0.42529970    -0.19900
F2239       F  0.79521688  0.93230744  0.40539783    -0.20200
F2240       F  0.83408087  0.99495005  0.40637257    -0.22900
C2241       C  0.60989370  0.82196031  0.42677992    -0.05700
C2242       C  0.63435125  0.78904883  0.43243303     0.00200
C2243       C  0.62655130  0.73592945  0.43775345    -0.08300
C2244       C  0.59495768  0.71679778  0.43617215    -0.05700
C2245       C  0.57054413  0.74879881  0.42997453     0.00200
C2246       C  0.57799986  0.80332277  0.42552506    -0.08300
C2247       C  0.55301306  0.84223717  0.41932460     0.62100
H2248       H  0.61623611  0.86266064  0.42305336     0.12800
H2249       H  0.58906516  0.67592993  0.43989962     0.12800
C2250       C  0.65102158  0.69925806  0.44538116     0.62400
F2251       F  0.56634762  0.89131843  0.41482314    -0.22800
F2252       F  0.52995723  0.85316617  0.43083304    -0.20100
F2253       F  0.53873848  0.81977880  0.40636186    -0.19800
F2254       F  0.66739576  0.72775760  0.45670034    -0.19900
F2255       F  0.67257055  0.67941382  0.43419204    -0.20200
F2256       F  0.63653715  0.65525461  0.45262332    -0.22900
C2257       C  0.59149426  0.70317810  0.54423708    -0.05700
C2258       C  0.57097480  0.73501881  0.55385485     0.00200
C2259       C  0.58422440  0.77352213  0.56419286    -0.08300
C2260       C  0.61786357  0.77794677  0.56472423    -0.05700
C2261       C  0.63860341  0.74541922  0.55529849     0.00200
C2262       C  0.62516751  0.70790522  0.54464342    -0.08300
C2263       C  0.64591666  0.67369487  0.53355139     0.62100
H2264       H  0.58075326  0.67371660  0.53648023     0.12800
H2265       H  0.62829113  0.80683132  0.57274489     0.12800
C2266       C  0.56314412  0.80810778  0.57506836     0.62400
F2267       F  0.62761553  0.64360158  0.52330201    -0.22800
F2268       F  0.66414557  0.63790756  0.54200903    -0.20100
F2269       F  0.66596125  0.70690665  0.52474845    -0.19800
F2270       F  0.54465176  0.77503412  0.58465824    -0.19900
F2271       F  0.54324389  0.84049615  0.56638583    -0.20200
F2272       F  0.58112149  0.84177446  0.58452089    -0.22900
C2273       C  0.86643565  0.89630481  0.56701724    -0.05700
C2274       C  0.88811836  0.87363640  0.55609261     0.00200
C2275       C  0.87799345  0.83091232  0.54613012    -0.08300
C2276       C  0.84683929  0.80980903  0.54820399    -0.05700
C2277       C  0.82489362  0.83236466  0.55910339     0.00200
C2278       C  0.83467875  0.87710557  0.56860380    -0.08300
C2279       C  0.81215779  0.90472536  0.58048250     0.62100
H2280       H  0.87475269  0.92913433  0.57438987     0.12800
H2281       H  0.83906020  0.77638838  0.54090315     0.12800
C2282       C  0.89933899  0.80960195  0.53278111     0.62400
F2283       F  0.82832495  0.94053019  0.59007744    -0.22800
F2284       F  0.79743854  0.86636933  0.58994547    -0.20100
F2285       F  0.78908806  0.93408662  0.57279426    -0.19800
F2286       F  0.92414963  0.77902166  0.53858414    -0.19900
F2287       F  0.91192566  0.85262776  0.52435410    -0.20200
F2288       F  0.88237097  0.77725155  0.52253643    -0.22900
C2289       C  0.70482038  0.83975636  0.50594033    -0.05700
C2290       C  0.73284327  0.81789605  0.51209977     0.00200
C2291       C  0.75822015  0.80043812  0.50185492    -0.08300
C2292       C  0.75415843  0.80421076  0.48566498    -0.05700
C2293       C  0.72586170  0.82477955  0.47948574     0.00200
C2294       C  0.70066551  0.84313395  0.48969060    -0.08300
C2295       C  0.66892407  0.86345846  0.48352649     0.62100
H2296       H  0.68564074  0.85205270  0.51398585     0.12800
H2297       H  0.77322539  0.79120407  0.47763987     0.12800
C2298       C  0.78969972  0.77849865  0.50789466     0.62400
F2299       F  0.64640226  0.87208105  0.49546342    -0.22800
F2300       F  0.65645788  0.82553873  0.47331533    -0.20100
F2301       F  0.67345702  0.91200023  0.47582337    -0.19800
F2302       F  0.78516106  0.72685931  0.51372538    -0.19900
F2303       F  0.80085481  0.81224434  0.51956569    -0.20200
F2304       F  0.81324148  0.77557700  0.49620303    -0.22900
C2305       C  0.01996402  0.62813241  0.85682175    -0.05700
C2306       C  0.99790487  0.58743784  0.85251189     0.00200
C2307       C  0.97429574  0.57005582  0.86355282    -0.08300
C2308       C  0.97371808  0.59403707  0.87852986    -0.05700
C2309       C  0.99578324  0.63424992  0.88278569     0.00200
C2310       C  0.01950447  0.65149321  0.87190728    -0.08300
C2311       C  0.04461925  0.69308201  0.87642386     0.62100
H2312       H  0.03775037  0.64137206  0.84826316     0.12800
H2313       H  0.95624688  0.58120528  0.88713703     0.12800
C2314       C  0.94932825  0.52746977  0.85957161     0.62400
F2315       F  0.06582681  0.70403033  0.86414430    -0.22800
F2316       F  0.06214333  0.67390489  0.88877936    -0.20100
F2317       F  0.02968137  0.74107633  0.88088113    -0.19800
F2318       F  0.96435591  0.47844236  0.85637050    -0.19900
F2319       F  0.94307323  0.99027838  0.85181330    -0.20200
F2320       F  0.92747350  0.51946257  0.87178492    -0.22900
C2321       C  0.97012566  0.92828401  0.62926017    -0.05700
C2322       C  0.98192602  0.98010065  0.63348259     0.00200
C2323       C  0.99476197  0.01421187  0.62161796    -0.08300
C2324       C  0.99500876  0.99509564  0.60609770    -0.05700
C2325       C  0.98284684  0.94380195  0.60196276     0.00200
C2326       C  0.97039980  0.90941361  0.61370425    -0.08300
C2327       C  0.95670893  0.85388748  0.60985415     0.62100
H2328       H  0.96035441  0.90218703  0.63829690     0.12800
H2329       H  0.00458243  0.02068214  0.59687128     0.12800
C2330       C  0.02824936  0.52978190  0.62915777     0.62400
F2331       F  0.94367319  0.82876918  0.62295851    -0.22800
F2332       F  0.98084000  0.82084528  0.60375350    -0.20100
F2333       F  0.93266148  0.85887110  0.59904213    -0.19800
F2334       F  0.03324773  0.06621658  0.63538236    -0.19900
F2335       F  0.01199987  0.57699360  0.63317725    -0.20200
F2336       F  0.04995722  0.54178570  0.61716834    -0.22900
C2337       C  0.96459435  0.48821939  0.73699052    -0.05700
C2338       C  0.98378512  0.52284058  0.72766273     0.00200
C2339       C  0.00651233  0.55703908  0.73484699    -0.08300
C2340       C  0.00919083  0.55502722  0.75115375    -0.05700
C2341       C  0.98988277  0.52073335  0.76053022     0.00200
C2342       C  0.96712128  0.48650007  0.75334923    -0.08300
C2343       C  0.95208659  0.94172688  0.76020214     0.62100
H2344       H  0.95182137  0.96306076  0.72927909     0.12800
H2345       H  0.02653953  0.58097545  0.75678763     0.12800
C2346       C  0.02837551  0.59466033  0.72546899     0.62400
F2347       F  0.93406716  0.91019819  0.75018722    -0.22800
F2348       F  0.93133986  0.96372880  0.77142609    -0.20100
F2349       F  0.97391854  0.90792662  0.76723651    -0.19800
F2350       F  0.01010567  0.63351683  0.71820014    -0.19900
F2351       F  0.04572641  0.56515152  0.71434055    -0.20200
F2352       F  0.05013429  0.62140568  0.73481866    -0.22900
C2353       C  0.73606457  0.56832913  0.85678821    -0.05700
C2354       C  0.74125846  0.62245418  0.85205101     0.00200
C2355       C  0.74680909  0.66274051  0.86361135    -0.08300
C2356       C  0.74629668  0.64718555  0.87941000    -0.05700
C2357       C  0.74052223  0.59328980  0.88405861     0.00200
C2358       C  0.73537071  0.55292143  0.87254050    -0.08300
C2359       C  0.72819686  0.49417462  0.87668315     0.62100
H2360       H  0.73243443  0.53737405  0.84796875     0.12800
H2361       H  0.75056210  0.67743667  0.88837321     0.12800
C2362       C  0.75300163  0.72177260  0.85954164     0.62400
F2363       F  0.72077217  0.46326754  0.86365262    -0.22800
F2364       F  0.70217622  0.49191294  0.88702551    -0.20100
F2365       F  0.75476235  0.47097124  0.88339174    -0.19800
F2366       F  0.72741136  0.74214379  0.85136553    -0.19900
F2367       F  0.78096950  0.72585430  0.85057238    -0.20200
F2368       F  0.75660532  0.75390796  0.87274936    -0.22900
C2369       C  0.85473215  0.63629382  0.79727468    -0.05700
C2370       C  0.83331326  0.59923426  0.80438143     0.00200
C2371       C  0.84597033  0.55471481  0.81259501    -0.08300
C2372       C  0.87963049  0.54900380  0.81325095    -0.05700
C2373       C  0.90117072  0.58626511  0.80619161     0.00200
C2374       C  0.88836531  0.63098363  0.79803638    -0.08300
C2375       C  0.90968889  0.67283211  0.78999088     0.62100
H2376       H  0.84468972  0.67041854  0.79110944     0.12800
H2377       H  0.88944791  0.51492713  0.81951190     0.12800
C2378       C  0.82430211  0.51448415  0.82110878     0.62400
F2379       F  0.89198753  0.71146728  0.78227235    -0.22800
F2380       F  0.92972120  0.64753614  0.77904235    -0.20100
F2381       F  0.92786919  0.69965285  0.80097726    -0.19800
F2382       F  0.80552305  0.48720766  0.81047253    -0.19900
F2383       F  0.80472514  0.54164810  0.83187609    -0.20200
F2384       F  0.84172521  0.47617139  0.82910416    -0.22900
C2385       C  0.71625205  0.73294385  0.63004131    -0.05700
C2386       C  0.73628535  0.68855774  0.63301758     0.00200
C2387       C  0.75537504  0.66585160  0.62084159    -0.08300
C2388       C  0.75377419  0.68880877  0.60586506    -0.05700
C2389       C  0.73396951  0.73395179  0.60279547     0.00200
C2390       C  0.71455546  0.75614202  0.61510886    -0.08300
C2391       C  0.69187394  0.80342377  0.61262752     0.62100
H2392       H  0.70222951  0.75000844  0.63972887     0.12800
H2393       H  0.76851008  0.67187330  0.59642785     0.12800
C2394       C  0.77794231  0.61889171  0.62385446     0.62400
F2395       F  0.67339526  0.81504548  0.62590873    -0.22800
F2396       F  0.67116752  0.79118080  0.60066257    -0.20100
F2397       F  0.70938313  0.84938734  0.60889682    -0.19800
F2398       F  0.76040682  0.57453693  0.62895394    -0.19900
F2399       F  0.79954252  0.63354188  0.63521056    -0.20200
F2400       F  0.79526405  0.60369949  0.61050769    -0.22900
C2401       C  0.87947294  0.58458722  0.69193741    -0.05700
C2402       C  0.88679565  0.53968295  0.68226912     0.00200
C2403       C  0.86330032  0.51926263  0.67213016    -0.08300
C2404       C  0.83369015  0.54684874  0.67133061    -0.05700
C2405       C  0.82692425  0.59372386  0.68041218     0.00200
C2406       C  0.84970846  0.61153903  0.69143162    -0.08300
C2407       C  0.84272001  0.65791679  0.70284172     0.62100
H2408       H  0.89780822  0.59929370  0.69970285     0.12800
H2409       H  0.81572813  0.53245438  0.66334028     0.12800
C2410       C  0.86997809  0.46991210  0.66184466     0.62400
F2411       F  0.86635302  0.66296401  0.71390848    -0.22800
F2412       F  0.81386490  0.64893323  0.71074912    -0.20100
F2413       F  0.84114711  0.70626509  0.69482381    -0.19800
F2414       F  0.87658101  0.42574355  0.67111000    -0.19900
F2415       F  0.89609208  0.47986525  0.65198845    -0.20200
F2416       F  0.84396953  0.45679541  0.65273443    -0.22900
C2417       C  0.72498434  0.69229290  0.73373534    -0.05700
C2418       C  0.73310388  0.64414545  0.72557642     0.00200
C2419       C  0.74261491  0.59796645  0.73398693    -0.08300
C2420       C  0.74511315  0.60262683  0.75030855    -0.05700
C2421       C  0.73779495  0.65124216  0.75844482     0.00200
C2422       C  0.72671991  0.69658100  0.75008334    -0.08300
C2423       C  0.71587385  0.74864673  0.75826857     0.62100
H2424       H  0.71739206  0.72700521  0.72711746     0.12800
H2425       H  0.75288394  0.56795402  0.75689811     0.12800
C2426       C  0.75056131  0.54439158  0.72586938     0.62400
F2427       F  0.70271342  0.78508283  0.74796570    -0.22800
F2428       F  0.74182738  0.77354998  0.76514331    -0.20100
F2429       F  0.69266755  0.73708000  0.76960390    -0.19800
F2430       F  0.77480134  0.55173497  0.71475252    -0.19900
F2431       F  0.72345130  0.52449156  0.71871943    -0.20200
F2432       F  0.76078967  0.50564343  0.73627597    -0.22900
C2433       C  0.49642507  0.70100145  0.62864154    -0.05700
C2434       C  0.48666786  0.75343558  0.63330297     0.00200
C2435       C  0.47532465  0.78972699  0.62201701    -0.08300
C2436       C  0.47259141  0.77091771  0.60655043    -0.05700
C2437       C  0.48203263  0.71800430  0.60178934     0.00200
C2438       C  0.49549697  0.68306890  0.61300763    -0.08300
C2439       C  0.50950553  0.62781611  0.60872395     0.62100
H2440       H  0.50493886  0.67376236  0.63748199     0.12800
H2441       H  0.46316237  0.79835911  0.59797018     0.12800
C2442       C  0.46538376  0.84745347  0.62626550     0.62400
F2443       F  0.52240646  0.60222314  0.62150519    -0.22800
F2444       F  0.53398648  0.63385759  0.59764944    -0.20100
F2445       F  0.48579181  0.59453710  0.60288071    -0.19800
F2446       F  0.49173810  0.87598409  0.63148022    -0.19900
F2447       F  0.44170675  0.84685347  0.63788840    -0.20200
F2448       F  0.45341724  0.87490611  0.61359126    -0.22900
C2449       C  0.60150755  0.77151248  0.68608291    -0.05700
C2450       C  0.57915308  0.73392797  0.68025016     0.00200
C2451       C  0.59041754  0.68394205  0.67397191    -0.08300
C2452       C  0.62363603  0.67395313  0.67355587    -0.05700
C2453       C  0.64603406  0.71096230  0.67964838     0.00200
C2454       C  0.63471114  0.76038352  0.68634895    -0.08300
C2455       C  0.65705841  0.80064240  0.69412602     0.62100
H2456       H  0.59271983  0.81003421  0.69053423     0.12800
H2457       H  0.63237490  0.63625687  0.66847224     0.12800
C2458       C  0.56783735  0.64172032  0.66729649     0.62400
F2459       F  0.64031202  0.84261469  0.70146053    -0.22800
F2460       F  0.67766904  0.82299458  0.68302754    -0.20100
F2461       F  0.67468211  0.77470115  0.70538332    -0.19800
F2462       F  0.54923968  0.66508006  0.65600340    -0.19900
F2463       F  0.54824195  0.62126299  0.67911636    -0.20200
F2464       F  0.58424931  0.59855783  0.66039305    -0.22900
C2465       C  0.48334401  0.90346421  0.85506949    -0.05700
C2466       C  0.49621040  0.85232760  0.85105143     0.00200
C2467       C  0.51071816  0.82062044  0.86256542    -0.08300
C2468       C  0.51056918  0.84039121  0.87797628    -0.05700
C2469       C  0.49663705  0.89078084  0.88228268     0.00200
C2470       C  0.48328254  0.92362016  0.87052175    -0.08300
C2471       C  0.46886433  0.97915647  0.87405094     0.62100
H2472       H  0.47314844  0.92758320  0.84588837     0.12800
H2473       H  0.52145770  0.81588904  0.88686617     0.12800
C2474       C  0.52722233  0.76708635  0.85855913     0.62400
F2475       F  0.45708998  0.00330789  0.86078147    -0.22800
F2476       F  0.49215370  0.01309177  0.88000931    -0.20100
F2477       F  0.44363993  0.97439789  0.88476967    -0.19800
F2478       F  0.54975098  0.77459929  0.84662183    -0.19900
F2479       F  0.50468851  0.72946804  0.85387148    -0.20200
F2480       F  0.54299531  0.74595750  0.87122913    -0.22900
C2481       C  0.64496527  0.75621165  0.81029448    -0.05700
C2482       C  0.64805828  0.70011100  0.80697556     0.00200
C2483       C  0.61981548  0.67003369  0.80378728    -0.08300
C2484       C  0.59010337  0.69762173  0.80364222    -0.05700
C2485       C  0.58722478  0.75381356  0.80668392     0.00200
C2486       C  0.61524311  0.78360401  0.81027165    -0.08300
C2487       C  0.61410239  0.84377062  0.81431443     0.62100
H2488       H  0.66633569  0.77924866  0.81287526     0.12800
H2489       H  0.56858492  0.67506177  0.80097525     0.12800
C2490       C  0.62053162  0.60933661  0.80049970     0.62400
F2491       F  0.64363406  0.86318412  0.81898441    -0.22800
F2492       F  0.59221489  0.85295943  0.82647376    -0.20100
F2493       F  0.60525996  0.87291339  0.80134888    -0.19800
F2494       F  0.63289757  0.58249837  0.81317266    -0.19900
F2495       F  0.63927522  0.59865977  0.78726232    -0.20200
F2496       F  0.59015690  0.58856213  0.79795197    -0.22900
C2497       C  0.51790713  0.81587720  0.75020861    -0.05700
C2498       C  0.49425433  0.78859003  0.75910235     0.00200
C2499       C  0.46794929  0.76433214  0.75151622    -0.08300
C2500       C  0.46638939  0.76849243  0.73518412    -0.05700
C2501       C  0.48969364  0.79690070  0.72634449     0.00200
C2502       C  0.51600639  0.82106472  0.73395177    -0.08300
C2503       C  0.54239421  0.85103217  0.72505464     0.62100
H2504       H  0.53780267  0.83436459  0.75623882     0.12800
H2505       H  0.44657117  0.74986758  0.72912787     0.12800
C2506       C  0.44087993  0.73670336  0.76056138     0.62400
F2507       F  0.56675742  0.86798120  0.73472506    -0.22800
F2508       F  0.52977359  0.89649759  0.71808894    -0.20100
F2509       F  0.55581820  0.81715812  0.71375105    -0.19800
F2510       F  0.42730817  0.77308158  0.77114818    -0.19900
F2511       F  0.45263855  0.69238811  0.76842438    -0.20200
F2512       F  0.41683445  0.71861286  0.75087404    -0.22900
C2513       C  0.25638751  0.00055850  0.62688646    -0.05700
C2514       C  0.23374519  0.96381058  0.63309516     0.00200
C2515       C  0.20754678  0.94688711  0.62392441    -0.08300
C2516       C  0.20612552  0.96532644  0.60843090    -0.05700
C2517       C  0.22932233  0.00092407  0.60222575     0.00200
C2518       C  0.25465712  0.01939997  0.61153818    -0.08300
C2519       C  0.28058108  0.05666503  0.60499241     0.62100
H2520       H  0.27595239  0.01381069  0.63414032     0.12800
H2521       H  0.18728696  0.95112028  0.60086842     0.12800
C2522       C  0.18086517  0.91104938  0.63047965     0.62400
F2523       F  0.30265588  0.07107222  0.61616491    -0.22800
F2524       F  0.24575657  0.63209827  0.60162326    -0.20100
F2525       F  0.29695265  0.03070574  0.59284028    -0.19800
F2526       F  0.16741639  0.93489759  0.64379448    -0.19900
F2527       F  0.19305814  0.86066929  0.63413693    -0.20200
F2528       F  0.15658849  0.90336534  0.61986761    -0.22900
C2529       C  0.09513794  0.51950773  0.68470958    -0.05700
C2530       C  0.07655438  0.98031665  0.68089008     0.00200
C2531       C  0.09057515  0.92933989  0.68418426    -0.08300
C2532       C  0.12425390  0.92576978  0.68480688    -0.05700
C2533       C  0.14469061  0.97027583  0.68174690     0.00200
C2534       C  0.12901583  0.51874494  0.68430029    -0.08300
C2535       C  0.14715240  0.57118693  0.68731815     0.62100
H2536       H  0.08287797  0.55731088  0.68728209     0.12800
H2537       H  0.13501711  0.88710525  0.68751138     0.12800
C2538       C  0.07063171  0.87840082  0.68680393     0.62400
F2539       F  0.12662650  0.61446620  0.69032224    -0.22800
F2540       F  0.16591718  0.58406536  0.67431372    -0.20100
F2541       F  0.16637157  0.56534072  0.70018568    -0.19800
F2542       F  0.05274424  0.86754269  0.67369427    -0.19900
F2543       F  0.05042310  0.88540411  0.69973153    -0.20200
F2544       F  0.08955869  0.83332043  0.68943619    -0.22900
C2545       C  0.33635660  0.83098683  0.68240925    -0.05700
C2546       C  0.33220137  0.88512835  0.67768809     0.00200
C2547       C  0.35971258  0.91592701  0.67344657    -0.08300
C2548       C  0.39023433  0.89106411  0.67401804    -0.05700
C2549       C  0.39443853  0.83673149  0.67873318     0.00200
C2550       C  0.36675957  0.80609781  0.68307437    -0.08300
C2551       C  0.36875687  0.74769670  0.68859617     0.62100
H2552       H  0.31521197  0.80791659  0.68576941     0.12800
H2553       H  0.41128700  0.91443541  0.67070830     0.12800
C2554       C  0.35707462  0.97427729  0.66805689     0.62400
F2555       F  0.33894422  0.72717741  0.69298381    -0.22800
F2556       F  0.38826782  0.74476295  0.70145388    -0.20100
F2557       F  0.38097939  0.71501473  0.67664805    -0.19800
F2558       F  0.34565083  0.00658240  0.68026296    -0.19900
F2559       F  0.33636917  0.97724170  0.65565505    -0.20200
F2560       F  0.38650214  0.99494728  0.66312752    -0.22900
C2561       C  0.23436969  0.83477238  0.85625789    -0.05700
C2562       C  0.24175474  0.88842371  0.85166562     0.00200
C2563       C  0.24911456  0.92730479  0.86339968    -0.08300
C2564       C  0.24900347  0.91059852  0.87911601    -0.05700
C2565       C  0.24197505  0.85690616  0.88356122     0.00200
C2566       C  0.23418162  0.81833141  0.87195363    -0.08300
C2567       C  0.22467576  0.76053804  0.87604280     0.62100
H2568       H  0.22861638  0.80503824  0.84739948     0.12800
H2569       H  0.25435167  0.93981985  0.88819018     0.12800
C2570       C  0.25679329  0.98613446  0.85963246     0.62400
F2571       F  0.21423586  0.73178858  0.86313494    -0.22800
F2572       F  0.19988047  0.76103361  0.88710692    -0.20100
F2573       F  0.25084102  0.73344957  0.88189587    -0.19800
F2574       F  0.23096448  0.00967242  0.85236024    -0.19900
F2575       F  0.28384356  0.98873166  0.84996015    -0.20200
F2576       F  0.26290010  0.01648248  0.87294213    -0.22900
C2577       C  0.35795804  0.92047082  0.80608297    -0.05700
C2578       C  0.33665752  0.87807958  0.80215114     0.00200
C2579       C  0.34973381  0.82771423  0.79700196    -0.08300
C2580       C  0.38306011  0.81981080  0.79792396    -0.05700
C2581       C  0.40421810  0.86148192  0.80237072     0.00200
C2582       C  0.39158917  0.91361688  0.80582626    -0.08300
C2583       C  0.41315150  0.96157618  0.80946326     0.62100
H2584       H  0.34807738  0.95956873  0.80943553     0.12800
H2585       H  0.39287751  0.78018577  0.79515325     0.12800
C2586       C  0.32928426  0.78276914  0.79009197     0.62400
F2587       F  0.39565954  0.00806071  0.81299316    -0.22800
F2588       F  0.43272334  0.97253220  0.79658232    -0.20100
F2589       F  0.43190281  0.94999277  0.82215738    -0.19800
F2590       F  0.31083477  0.80342236  0.77825601    -0.19900
F2591       F  0.30955510  0.76062259  0.80158741    -0.20200
F2592       F  0.34792094  0.74132093  0.78365061    -0.22900
C2593       C  0.14174703  0.00483251  0.79707219    -0.05700
C2594       C  0.14879209  0.95824844  0.80577227     0.00200
C2595       C  0.12422824  0.93332104  0.81481971    -0.08300
C2596       C  0.09336016  0.95640867  0.81494106    -0.05700
C2597       C  0.08608968  0.00285516  0.80618424     0.00200
C2598       C  0.11064035  0.02737117  0.79692546    -0.08300
C2599       C  0.10498109  0.56495884  0.82641634     0.62100
H2600       H  0.16098865  0.02332252  0.79023549     0.12800
H2601       H  0.07437118  0.93782450  0.82191367     0.12800
C2602       C  0.13063585  0.88344801  0.82458831     0.62400
F2603       F  0.13088854  0.57677193  0.83573655    -0.22800
F2604       F  0.07873953  0.55430368  0.83612421    -0.20100
F2605       F  0.09871912  0.61021057  0.81753931    -0.19800
F2606       F  0.15560847  0.89368585  0.83460962    -0.19900
F2607       F  0.13865835  0.84014597  0.81487868    -0.20200
F2608       F  0.10398493  0.86866567  0.83355668    -0.22900
C2609       C  0.21832830  0.89472693  0.75070033    -0.05700
C2610       C  0.24148623  0.92648813  0.75829076     0.00200
C2611       C  0.26485167  0.95496362  0.74936479    -0.08300
C2612       C  0.26435192  0.94993623  0.73302392    -0.05700
C2613       C  0.24117632  0.91825832  0.72543889     0.00200
C2614       C  0.21748728  0.89048854  0.73434313    -0.08300
C2615       C  0.19079239  0.85839409  0.72671104     0.62100
H2616       H  0.20063124  0.87330108  0.75776404     0.12800
H2617       H  0.28199999  0.97142263  0.72595037     0.12800
C2618       C  0.29048151  0.98962474  0.75693486     0.62400
F2619       F  0.19182744  0.30024006  0.73531153    -0.22800
F2620       F  0.20372160  0.81491711  0.71840460    -0.20100
F2621       F  0.17419073  0.89146299  0.71668628    -0.19800
F2622       F  0.30764340  0.95879715  0.76730998    -0.19900
F2623       F  0.27614864  0.03280124  0.76482528    -0.20200
F2624       F  0.31205004  0.01058156  0.74599795    -0.22900
C2625       C  0.25450904  0.59878949  0.35674175    -0.05700
C2626       C  0.23724535  0.64544765  0.35271164     0.00200
C2627       C  0.21620035  0.66998920  0.36380703    -0.08300
C2628       C  0.21340031  0.64691476  0.37876131    -0.05700
C2629       C  0.23070070  0.60000036  0.38289975     0.00200
C2630       C  0.25162351  0.57526080  0.37161873    -0.08300
C2631       C  0.27104107  0.52471902  0.37509549     0.62100
H2632       H  0.26998625  0.58008478  0.34785286     0.12800
H2633       H  0.19741701  0.66565968  0.38740226     0.12800
C2634       C  0.19613591  0.71909332  0.35970378     0.62400
F2635       F  0.29032047  0.50878268  0.36246506    -0.22800
F2636       F  0.25046818  0.48221606  0.37858794    -0.20100
F2637       F  0.29084878  0.53458086  0.38758315    -0.19800
F2638       F  0.17731937  0.70712158  0.34699308    -0.19900
F2639       F  0.21617306  0.76210933  0.35604435    -0.20200
F2640       F  0.17593688  0.73507319  0.37198680    -0.22900
C2641       C  0.23498948  0.77198701  0.13068288    -0.05700
C2642       C  0.24380290  0.71806128  0.13391374     0.00200
C2643       C  0.25035120  0.68211367  0.12129970    -0.08300
C2644       C  0.24881409  0.70216094  0.10594164    -0.05700
C2645       C  0.23995082  0.75630417  0.10264504     0.00200
C2646       C  0.23164345  0.79133944  0.11536728    -0.08300
C2647       C  0.21855776  0.84827974  0.11309740     0.62100
H2648       H  0.23009030  0.79922494  0.14044681     0.12800
H2649       H  0.25446996  0.67484086  0.09629713     0.12800
C2650       C  0.25978438  0.62345289  0.12394427     0.62400
F2651       F  0.21028372  0.87335118  0.12718401    -0.22800
F2652       F  0.19111929  0.84583547  0.10427381    -0.20100
F2653       F  0.24142464  0.88018339  0.10565564    -0.19800
F2654       F  0.23444410  0.59609191  0.13102476    -0.19900
F2655       F  0.28630169  0.62138273  0.13339522    -0.20200
F2656       F  0.26751853  0.59670245  0.11005605    -0.22900
C2657       C  0.26896020  0.69638061  0.23469839    -0.05700
C2658       C  0.24200392  0.67536109  0.22707268     0.00200
C2659       C  0.21433406  0.66086608  0.23596996    -0.08300
C2660       C  0.21469205  0.66784004  0.25230268    -0.05700
C2661       C  0.24159186  0.68904371  0.25992425     0.00200
C2662       C  0.26946697  0.70269018  0.25106703    -0.08300
C2663       C  0.29997760  0.72131098  0.25887458     0.62100
H2664       H  0.28975563  0.70781053  0.22764923     0.12800
H2665       H  0.19385109  0.65650842  0.25934688     0.12800
C2666       C  0.18415037  0.64060049  0.22823778     0.62400
F2667       F  0.32468321  0.73042254  0.24809408    -0.22800
F2668       F  0.31003921  0.68194878  0.26909747    -0.20100
F2669       F  0.29426668  0.76910591  0.26704208    -0.19800
F2670       F  0.19073813  0.59334647  0.21994641    -0.19900
F2671       F  0.17325896  0.67974297  0.21818120    -0.20200
F2672       F  0.15976556  0.62972566  0.23905378    -0.22900
C2673       C  0.48231567  0.67986732  0.35493781    -0.05700
C2674       C  0.48342394  0.62408374  0.35098158     0.00200
C2675       C  0.48047119  0.58530529  0.36303545    -0.08300
C2676       C  0.47860575  0.60402582  0.37857759    -0.05700
C2677       C  0.47982783  0.65963586  0.38256935     0.00200
C2678       C  0.48060628  0.69849915  0.37051879    -0.08300
C2679       C  0.48090963  0.75902617  0.37393330     0.62100
H2680       H  0.48336838  0.70937087  0.34563901     0.12800
H2681       H  0.47668441  0.57467882  0.38790138     0.12800
C2682       C  0.48005410  0.52457739  0.35976778     0.62400
F2683       F  0.48297191  0.78939572  0.36039545    -0.22800
F2684       F  0.50714825  0.77168393  0.38287113    -0.20100
F2685       F  0.45294438  0.77391067  0.38189956    -0.19800
F2686       F  0.50804518  0.50934329  0.35186040    -0.19900
F2687       F  0.45372810  0.51149253  0.35088990    -0.20200
F2688       F  0.47793091  0.49464158  0.37338053    -0.22900
C2689       C  0.34653939  0.60878691  0.29391582    -0.05700
C2690       C  0.33380463  0.64212492  0.30586993     0.00200
C2691       C  0.35497307  0.66902496  0.31625930    -0.08300
C2692       C  0.38829208  0.66304233  0.31383657    -0.05700
C2693       C  0.40094753  0.62986540  0.30188753     0.00200
C2694       C  0.37992023  0.60189964  0.29174622    -0.08300
C2695       C  0.39262517  0.56600360  0.27844570     0.62100
H2696       H  0.33006711  0.58882992  0.28610421     0.12800
H2697       H  0.40485416  0.68259078  0.32169695     0.12800
C2698       C  0.34276495  0.70170065  0.33036841     0.62400
F2699       F  0.36828232  0.54891869  0.26878417    -0.22800
F2700       F  0.40713600  0.52032299  0.28434101    -0.20100
F2701       F  0.41477989  0.59449542  0.26944450    -0.19800
F2702       F  0.31980981  0.67217540  0.33858608    -0.19900
F2703       F  0.32958669  0.75012379  0.32559804    -0.20200
F2704       F  0.36723311  0.71395998  0.34053542    -0.22900
C2705       C  0.46996474  0.95897167  0.12794958    -0.05700
C2706       C  0.49342390  0.99635559  0.13280406     0.00200
C2707       C  0.51671203  0.01535590  0.12182844    -0.08300
C2708       C  0.51464172  0.99786451  0.10615919    -0.05700
C2709       C  0.49089651  0.96108034  0.10142148     0.00200
C2710       C  0.46838751  0.94076161  0.11240907    -0.08300
C2711       C  0.44234307  0.90134137  0.10757539     0.62100
H2712       H  0.45252587  0.94418335  0.13650642     0.12800
H2713       H  0.53149183  0.01308247  0.09738144     0.12800
C2714       C  0.46712974  0.59646518  0.12519875     0.62400
F2715       F  0.42250781  0.88698408  0.12008100    -0.22800
F2716       F  0.45628350  0.85455903  0.10149332    -0.20100
F2717       F  0.42355834  0.92478878  0.09632950    -0.19800
F2718       F  0.49168293  0.63035449  0.12984699    -0.19900
F2719       F  0.44406686  0.59319415  0.13706402    -0.20200
F2720       F  0.45301509  0.61964064  0.11235334    -0.22900
C2721       C  0.39569270  0.64423552  0.18512489    -0.05700
C2722       C  0.40097216  0.59038706  0.17994666     0.00200
C2723       C  0.37420605  0.55927105  0.17523031    -0.08300
C2724       C  0.34359683  0.58396383  0.17528756    -0.05700
C2725       C  0.33822485  0.63816008  0.18025123     0.00200
C2726       C  0.36489177  0.66851875  0.18562984    -0.08300
C2727       C  0.36120427  0.72574183  0.19218097     0.62100
H2728       H  0.41620498  0.66746100  0.18896684     0.12800
H2729       H  0.32331372  0.56033894  0.17139660     0.12800
C2730       C  0.38350968  0.00825825  0.20130258     0.62400
F2731       F  0.38989284  0.74603466  0.19767981    -0.22800
F2732       F  0.33919080  0.72592101  0.20455621    -0.20100
F2733       F  0.35090230  0.76012472  0.18062335    -0.19800
F2734       F  0.41042887  0.02347606  0.20948109    -0.19900
F2735       F  0.38924567  0.95910190  0.19383603    -0.20200
F2736       F  0.35850499  0.00107918  0.21203927    -0.22900
C2737       C  0.50194932  0.52324644  0.25178826    -0.05700
C2738       C  0.49876611  0.57541200  0.25820859     0.00200
C2739       C  0.49548486  0.62077419  0.24810480    -0.08300
C2740       C  0.49493809  0.61133381  0.23193859    -0.05700
C2741       C  0.49743418  0.55907608  0.22555790     0.00200
C2742       C  0.50158397  0.51387354  0.23561315    -0.08300
C2743       C  0.51105769  0.94074485  0.22871145     0.62100
H2744       H  0.50466008  0.48939568  0.25965034     0.12800
H2745       H  0.49206810  0.64508680  0.22405579     0.12800
C2746       C  0.49199323  0.67902404  0.25402847     0.62400
F2747       F  0.52339418  0.90712090  0.24000187    -0.22800
F2748       F  0.53469464  0.94712242  0.21724804    -0.20100
F2749       F  0.48475996  0.91488530  0.22244272    -0.19800
F2750       F  0.52001889  0.69524569  0.26110503    -0.19900
F2751       F  0.46636329  0.68295000  0.26456985    -0.20200
F2752       F  0.48631769  0.71503720  0.24205252    -0.22900
C2753       C  0.97742218  0.90695212  0.35511798    -0.05700
C2754       C  0.98542155  0.85355401  0.35055279     0.00200
C2755       C  0.99218686  0.81486255  0.36210433    -0.08300
C2756       C  0.99147137  0.83165174  0.37784670    -0.05700
C2757       C  0.98390861  0.88541045  0.38255159     0.00200
C2758       C  0.97625527  0.92374710  0.37090309    -0.08300
C2759       C  0.96669326  0.98184831  0.37485454     0.62100
H2760       H  0.97203538  0.93582560  0.34606036     0.12800
H2761       H  0.99702486  0.80209580  0.38667066     0.12800
C2762       C  0.00096694  0.75653693  0.35792050     0.62400
F2763       F  0.95938655  0.01111444  0.36164426    -0.22800
F2764       F  0.99175132  0.00806576  0.38210984    -0.20100
F2765       F  0.93971728  0.98207477  0.38461583    -0.19800
F2766       F  0.02701831  0.75564381  0.34757058    -0.19900
F2767       F  0.97505212  0.73111839  0.35115240    -0.20200
F2768       F  0.00911916  0.72691909  0.37093541    -0.22900
C2769       C  0.08864004  0.71649118  0.30281179    -0.05700
C2770       C  0.08375270  0.77102939  0.30739642     0.00200
C2771       C  0.11002242  0.80099095  0.31320151    -0.08300
C2772       C  0.14040618  0.77593893  0.31343291    -0.05700
C2773       C  0.14571056  0.72205533  0.30819960     0.00200
C2774       C  0.11904357  0.69123215  0.30316415    -0.08300
C2775       C  0.12237362  0.63241306  0.29795296     0.62100
H2776       H  0.06827678  0.69367614  0.29865059     0.12800
H2777       H  0.16057505  0.79906849  0.31765840     0.12800
C2778       C  0.10620170  0.85863227  0.31947534     0.62400
F2779       F  0.09332022  0.61048976  0.29349258    -0.22800
F2780       F  0.13353449  0.60165095  0.31015291    -0.20100
F2781       F  0.14355780  0.62867688  0.28528415    -0.19800
F2782       F  0.08187111  0.86043116  0.33077612    -0.19900
F2783       F  0.09895511  0.89326477  0.30741547    -0.20200
F2784       F  0.13400560  0.87750895  0.32626365    -0.22900
C2785       C  0.96355905  0.70532300  0.12773030    -0.05700
C2786       C  0.98718587  0.74262455  0.13248010     0.00200
C2787       C  0.01142208  0.75914246  0.12164203    -0.08300
C2788       C  0.01101920  0.73767307  0.10637919    -0.05700
C2789       C  0.98722234  0.70112247  0.10167347     0.00200
C2790       C  0.96284291  0.68495361  0.11233833    -0.08300
C2791       C  0.93569726  0.64820224  0.10722182     0.62100
H2792       H  0.94519418  0.69292815  0.13615921     0.12800
H2793       H  0.02882790  0.75062335  0.09774223     0.12800
C2794       C  0.03775327  0.79859002  0.12610693     0.62400
F2795       F  0.91423674  0.63735087  0.11940671    -0.22800
F2796       F  0.94816123  0.59945562  0.10172713    -0.20100
F2797       F  0.91894755  0.67275925  0.09540776    -0.19800
F2798       F  0.05387760  0.77918790  0.13887280    -0.19900
F2799       F  0.02441125  0.84863989  0.12974841    -0.20200
F2800       F  0.06005334  0.80582228  0.11404078    -0.22900
C2801       C  0.10343145  0.77183297  0.17027923    -0.05700
C2802       C  0.08254780  0.73781359  0.17893162     0.00200
C2803       C  0.09585948  0.69609493  0.18807706    -0.08300
C2804       C  0.12957692  0.69062364  0.18829308    -0.05700
C2805       C  0.15038653  0.72566062  0.17998023     0.00200
C2806       C  0.13703837  0.76600088  0.17041483    -0.08300
C2807       C  0.15783216  0.79975900  0.15943781     0.62100
H2808       H  0.09311037  0.80310265  0.16312925     0.12800
H2809       H  0.14005640  0.65818856  0.19493071     0.12800
C2810       C  0.07493948  0.65821044  0.19782959     0.62400
F2811       F  0.13974623  0.83367336  0.15026126    -0.22800
F2812       F  0.17511615  0.76540015  0.14957203    -0.20100
F2813       F  0.17866898  0.83167905  0.16786809    -0.19800
F2814       F  0.05608957  0.62705135  0.18812427    -0.19900
F2815       F  0.05547733  0.68810264  0.20802083    -0.20200
F2816       F  0.09308760  0.62327219  0.20665281    -0.22900
C2817       C  0.01502475  0.83451293  0.23107094    -0.05700
C2818       C  0.98966881  0.80500544  0.22468249     0.00200
C2819       C  0.96639223  0.78029231  0.23473267    -0.08300
C2820       C  0.97059833  0.78339946  0.25091299    -0.05700
C2821       C  0.99605248  0.81241580  0.25735649     0.00200
C2822       C  0.01856736  0.83922947  0.24733963    -0.08300
C2823       C  0.04652003  0.87186424  0.25362666     0.62100
H2824       H  0.03234509  0.85326495  0.22316946     0.12800
H2825       H  0.95344527  0.76392993  0.25873690     0.12800
C2826       C  0.93649914  0.75238836  0.22860517     0.62400
F2827       F  0.06823441  0.88618648  0.24186229    -0.22800
F2828       F  0.06287990  0.84170989  0.26446295    -0.20100
F2829       F  0.03516042  0.91914771  0.26059824    -0.19800
F2830       F  0.94458813  0.70296465  0.22183912    -0.19900
F2831       F  0.92205547  0.78488738  0.21767534    -0.20200
F2832       F  0.91402683  0.74276875  0.24045510    -0.22900
C2833       C  0.72397712  0.92498872  0.38187577    -0.05700
C2834       C  0.73265972  0.87203851  0.38645569     0.00200
C2835       C  0.74570115  0.83587950  0.37493510    -0.08300
C2836       C  0.74872359  0.85387828  0.35940037    -0.05700
C2837       C  0.73919884  0.90609432  0.35483940     0.00200
C2838       C  0.72698396  0.94273370  0.36629752    -0.08300
C2839       C  0.71625133  0.99961967  0.36212438     0.62100
H2840       H  0.71449269  0.95292324  0.39064309     0.12800
H2841       H  0.75837083  0.82658865  0.35048213     0.12800
C2842       C  0.75634396  0.77851483  0.37871071     0.62400
F2843       F  0.70959959  0.52698615  0.37687683    -0.22800
F2844       F  0.69408406  0.50089824  0.35306020    -0.20100
F2845       F  0.74539403  0.52663330  0.35697087    -0.19800
F2846       F  0.73053674  0.74932312  0.38468700    -0.19900
F2847       F  0.78067760  0.78019273  0.38946584    -0.20200
F2848       F  0.76802401  0.75090741  0.36560050    -0.22900
C2849       C  0.88918122  0.90364641  0.31510446    -0.05700
C2850       C  0.90112027  0.87608997  0.30184032     0.00200
C2851       C  0.87979848  0.85857588  0.29014465    -0.08300
C2852       C  0.84662103  0.86777280  0.29244390    -0.05700
C2853       C  0.83454270  0.89425871  0.30591926     0.00200
C2854       C  0.85609828  0.91316490  0.31740300    -0.08300
C2855       C  0.84424514  0.94134262  0.33232990     0.62100
H2856       H  0.90601474  0.91609840  0.32392874     0.12800
H2857       H  0.82984594  0.85488264  0.28364766     0.12800
C2858       C  0.89219854  0.83128645  0.27521558     0.62400
F2859       F  0.86877422  0.94915931  0.34279550    -0.22800
F2860       F  0.82076868  0.91015718  0.33960957    -0.20100
F2861       F  0.83170591  0.99165928  0.32888311    -0.19800
F2862       F  0.90481820  0.78099560  0.27860197    -0.19900
F2863       F  0.91588705  0.86301901  0.26830366    -0.20200
F2864       F  0.86806059  0.82398322  0.26450937    -0.22900
C2865       C  0.64314811  0.53918385  0.30005255    -0.05700
C2866       C  0.64736392  0.48980069  0.30793389     0.00200
C2867       C  0.62087075  0.46647602  0.31605117    -0.08300
C2868       C  0.59109581  0.49358453  0.31597114    -0.05700
C2869       C  0.58660569  0.54258796  0.30788678     0.00200
C2870       C  0.61315850  0.56580955  0.29969251    -0.08300
C2871       C  0.60526094  0.09534302  0.28927559     0.62100
H2872       H  0.66096996  0.04105358  0.29375025     0.12800
H2873       H  0.57075312  0.47603892  0.32217036     0.12800
C2874       C  0.62395298  0.41388383  0.32503394     0.62400
F2875       F  0.63294945  0.10948600  0.28099884    -0.22800
F2876       F  0.60185257  0.66026439  0.30001703    -0.20100
F2877       F  0.58641964  0.61047149  0.27916542    -0.19800
F2878       F  0.64822618  0.41855864  0.33575622    -0.19900
F2879       F  0.63089627  0.37167574  0.31474825    -0.20200
F2880       F  0.59585364  0.40092371  0.33314480    -0.22900
C2881       C  0.73842490  0.43845963  0.10660878    -0.05700
C2882       C  0.73829361  0.49426637  0.10294039     0.00200
C2883       C  0.72079540  0.02526590  0.11572681    -0.08300
C2884       C  0.72260832  0.00718124  0.13126273    -0.05700
C2885       C  0.74315877  0.45822390  0.13432205     0.00200
C2886       C  0.74069047  0.41959882  0.12206834    -0.08300
C2887       C  0.74098030  0.35899483  0.12509816     0.62100
H2888       H  0.73684867  0.40919883  0.09715214     0.12800
H2889       H  0.70822477  0.02666861  0.14042054     0.12800
C2890       C  0.69708067  0.06964140  0.11173159     0.62400
F2891       F  0.74032230  0.32891008  0.11135699    -0.22800
F2892       F  0.71424618  0.34490117  0.13406998    -0.20100
F2893       F  0.76858987  0.34514299  0.13284911    -0.19800
F2894       F  0.67701296  0.05157439  0.10010311    -0.19900
F2895       F  0.71349842  0.11519854  0.10665170    -0.20200
F2896       F  0.67800130  0.08459730  0.12453467    -0.22900
C2897       C  0.64166632  0.51611854  0.19071406    -0.05700
C2898       C  0.65471062  0.47958614  0.17967221     0.00200
C2899       C  0.63220535  0.94618011  0.17054968    -0.08300
C2900       C  0.59901195  0.95518227  0.17155255    -0.05700
C2901       C  0.58796899  0.50170854  0.18056133     0.00200
C2902       C  0.60850088  0.52789070  0.19133804    -0.08300
C2903       C  0.59534823  0.56672731  0.20379574     0.62100
H2904       H  0.65760637  0.53439449  0.19908488     0.12800
H2905       H  0.58306058  0.93363316  0.16382441     0.12800
C2906       C  0.64530875  0.90744037  0.15798696     0.62400
F2907       F  0.61890880  0.58350434  0.21394091    -0.22800
F2908       F  0.57145039  0.54138501  0.21250533    -0.20100
F2909       F  0.58287740  0.61236352  0.19687948    -0.19800
F2910       F  0.65639493  0.86043287  0.16472364    -0.19900
F2911       F  0.67003284  0.93206278  0.14964321    -0.20200
F2912       F  0.62200095  0.89280308  0.14743733    -0.22900
C2913       C  0.89030572  0.87233381  0.19075433    -0.05700
C2914       C  0.89753486  0.83294573  0.17921742     0.00200
C2915       C  0.87494274  0.82085054  0.16764658    -0.08300
C2916       C  0.84540226  0.84852702  0.16810541    -0.05700
C2917       C  0.83799118  0.88794991  0.17965033     0.00200
C2918       C  0.86052696  0.89952814  0.19136139    -0.08300
C2919       C  0.85256320  0.93811785  0.20481921     0.62100
H2920       H  0.90827486  0.88141400  0.19937038     0.12800
H2921       H  0.82753256  0.83899133  0.15949477     0.12800
C2922       C  0.88237817  0.77983149  0.15472713     0.62400
F2923       F  0.87695313  0.94040603  0.21555430    -0.22800
F2924       F  0.82492858  0.92086838  0.21256741    -0.20100
F2925       F  0.84784703  0.98984046  0.19918068    -0.19800
F2926       F  0.88712521  0.72927340  0.16116549    -0.19900
F2927       F  0.90988027  0.79518348  0.14652155    -0.20200
F2928       F  0.85760539  0.77571979  0.14423852    -0.22900
C2929       C  0.76598808  0.96081454  0.23608732    -0.05700
C2930       C  0.74406027  0.92708786  0.22831042     0.00200
C2931       C  0.71653842  0.41230829  0.23648396    -0.08300
C2932       C  0.71619357  0.41926608  0.25284677    -0.05700
C2933       C  0.74182608  0.93873947  0.26125887     0.00200
C2934       C  0.76547370  0.96703947  0.25243616    -0.08300
C2935       C  0.79057383  0.00247639  0.26012748     0.62100
H2936       H  0.78364486  0.98280335  0.22915739     0.12800
H2937       H  0.69527206  0.40690468  0.25967639     0.12800
C2938       C  0.68667117  0.39187200  0.22843086     0.62400
F2939       F  0.81268465  0.02280228  0.24934185    -0.22800
F2940       F  0.80724572  0.97250949  0.27089276    -0.20100
F2941       F  0.77574271  0.04606533  0.26758637    -0.19800
F2942       F  0.69328885  0.34338155  0.22078281    -0.19900
F2943       F  0.67676754  0.42979063  0.21771557    -0.20200
F2944       F  0.66146517  0.38315140  0.23895732    -0.22900
loop_ 
_geom_bond_atom_site_label_1 
_geom_bond_atom_site_label_2 
_geom_bond_distance 
_geom_bond_site_symmetry_2 
_ccdc_geom_bond_type 
O1            V9   1.923       .  S
O1         C1483   1.272       .  A
O2            V9   1.918       .  S
O2           C12   1.271       .  A
O3            V9   1.872       .  S
O3           C13   1.257       .  A
O4            V9   1.874       .  S
O4           C14   1.256       .  A
O5           V10   1.924       .  S
O5         C1486   1.271       .  A
O6           V10   1.924       .  S
O6         C1485   1.272       .  A
O7           V10   1.874       .  S
O7         C1484   1.255       .  A
O8           V10   1.881       .  S
O8           C11   1.260       .  A
V9         V1482   2.086       .  T
V10        V1481   2.082       .  T
C11        O1473   1.272       .  A
C11        C1445   1.500       .  S
C12        O1479   1.252       .  A
C12        C1426   1.470       .  S
C13        O1478   1.270       .  A
C13        C2930   1.480       .  S
C14        O1477   1.269       .  A
C14        C1413   1.469       .  S
O15          V23   1.918       .  S
O15        C1497   1.270       .  A
O16          V23   1.918       .  S
O16          C26   1.270       .  A
O17          V23   1.877       .  S
O17          C27   1.259       .  A
O18          V23   1.878       .  S
O18          C28   1.258       .  A
O19        V1496   1.917       .  S
O19        C1500   1.270       .  A
O20          V24   1.927       .  S
O20          C27   1.272       .  A
O21          V24   1.879       .  S
O21          C26   1.257       .  A
O22        V1496   1.882       .  S
O22          C25   1.259       .  A
V23          V24   2.084       .  T
V24        O1491   1.926       .  S
V24        O1494   1.886       .  S
C25        O1487   1.270       .  A
C25        C1394   1.486       .  S
C26        C1381   1.475       .  S
C27        C1365   1.491       .  S
C28        O1491   1.272       .  A
C28        C1461   1.485       .  S
O29          V37   1.923       .  S
O29          C39   1.271       .  A
O30          V37   1.921   1_455  S
O30          C40   1.271       .  A
O31          V37   1.872       .  S
O31          C41   1.254       .  A
O32          V37   1.874       .  S
O32          C42   1.255       .  A
O33          V38   1.919   1_455  S
O33          C42   1.269   1_455  A
O34          V38   1.916       .  S
O34          C41   1.270       .  A
O35          V38   1.875   1_455  S
O35          C40   1.258       .  A
O36          V38   1.882       .  S
O36          C39   1.260       .  A
V37          V38   2.084       .  T
C39        C1442   1.503       .  S
C40        C1330   1.483       .  S
C41        C1346   1.473       .  S
C42        C1314   1.469       .  S
O43          V51   1.914   1_455  S
O43          C53   1.269       .  A
O44          V51   1.913       .  S
O44          C54   1.268       .  A
O45          V51   1.880       .  S
O45          C55   1.258       .  A
O46          V51   1.875       .  S
O46          C56   1.256       .  A
O47          V52   1.912       .  S
O47          C56   1.268       .  A
O48          V52   1.913       .  S
O48          C55   1.269       .  A
O49          V52   1.886       .  S
O49          C54   1.258       .  A
O50          V52   1.892   1_455  S
O50          C53   1.262       .  A
V51          V52   2.085       .  T
C53        C1298   1.504       .  S
C54        C1378   1.471       .  S
C55        C1282   1.479       .  S
C56        C1349   1.471       .  S
O57          V65   1.922       .  S
O57        C1539   1.271       .  A
O58          V65   1.921       .  S
O58          C68   1.271       .  A
O59          V65   1.865       .  S
O59        C1541   1.252       .  A
O60          V65   1.869       .  S
O60          C70   1.256       .  A
O61          V66   1.921       .  S
O61        C1542   1.271       .  A
O62          V66   1.916       .  S
O62          C69   1.272       .  A
O63          V66   1.871       .  S
O63        C1540   1.254       .  A
O64          V66   1.878       .  S
O64          C67   1.258       .  A
V65        V1538   2.084       .  T
V66        V1537   2.086   1_545  T
C67        O1529   1.269       .  A
C67        C1250   1.479       .  S
C68        O1535   1.258       .  A
C68        C2901   1.480       .  S
C69        O1531   1.253   1_545  A
C69        C1269   1.479       .  S
C70        O1533   1.269       .  A
C70        C1234   1.474       .  S
O71          V79   1.920       .  S
O71          C81   1.271       .  A
O72          V79   1.921       .  S
O72          C82   1.271       .  A
O73          V79   1.867       .  S
O73          C83   1.255       .  A
O74          V79   1.868       .  S
O74          C84   1.253       .  A
O75          V80   1.917       .  S
O75          C84   1.272       .  A
O76          V80   1.919       .  S
O76          C83   1.270       .  A
O77          V80   1.881       .  S
O77          C82   1.256       .  A
O78          V80   1.883       .  S
O78          C81   1.259       .  A
V79          V80   2.085       .  T
C81        C1397   1.492       .  S
C82        C1221   1.479       .  S
C83        C1202   1.473       .  S
C84        C1266   1.479       .  S
O85          V93   1.917       .  S
O85          C95   1.269       .  A
O86          V93   1.919       .  S
O86          C96   1.270       .  A
O87          V93   1.871       .  S
O87          C97   1.256       .  A
O88          V93   1.870       .  S
O88          C98   1.258       .  A
O89          V94   1.926       .  S
O89          C98   1.272       .  A
O90          V94   1.919       .  S
O90          C97   1.271       .  A
O91          V94   1.874       .  S
O91          C96   1.258       .  A
O92          V94   1.880       .  S
O92          C95   1.258       .  A
V93          V94   2.083       .  T
C95        C1253   1.476       .  S
C96        C1333   1.490       .  S
C97        C1186   1.478       .  S
C98        C1170   1.495       .  S
O99         V107   1.930       .  S
O99         C109   1.273       .  A
O100        V107   1.929       .  S
O100        C110   1.274       .  A
O101        V107   1.867       .  S
O101        C111   1.256       .  A
O102        V107   1.865       .  S
O102        C112   1.255       .  A
O103        V108   1.922       .  S
O103        C112   1.271       .  A
O104        V108   1.921       .  S
O104        C111   1.271       .  A
O105        V108   1.873       .  S
O105        C110   1.254       .  A
O106        V108   1.877       .  S
O106        C109   1.259       .  A
V107        V108   2.083       .  T
C109       C1301   1.501       .  S
C110       C1218   1.486       .  S
C111       C1154   1.482       .  S
C112       C1189   1.476       .  S
O113        V121   1.923       .  S
O113        C123   1.271       .  A
O114        V121   1.918       .  S
O114        C124   1.270       .  A
O115        V121   1.878       .  S
O115        C125   1.259       .  A
O116        V121   1.874       .  S
O116        C126   1.258       .  A
O117        V122   1.915       .  S
O117        C126   1.269       .  A
O118        V122   1.916       .  S
O118        C125   1.269       .  A
O119        V122   1.873       .  S
O119        C124   1.258       .  A
O120        V122   1.878       .  S
O120        C123   1.259       .  A
V121        V122   2.079       .  T
C123       C1122   1.491       .  S
C124       C1106   1.494       .  S
C125       C1090   1.497       .  S
C126       C1138   1.486       .  S
O127        V135   1.928       .  S
O127        C137   1.272       .  A
O128        V135   1.925       .  S
O128        C138   1.272       .  A
O129        V135   1.878       .  S
O129        C139   1.259       .  A
O130        V135   1.882       .  S
O130        C140   1.259       .  A
O131        V136   1.908       .  S
O131        C140   1.268       .  A
O132        V136   1.909       .  S
O132        C139   1.267       .  A
O133        V136   1.876       .  S
O133        C138   1.259       .  A
O134        V136   1.875       .  S
O134        C137   1.257       .  A
V135        V136   2.082       .  T
C137       C1074   1.482       .  S
C138       C1061   1.501       .  S
C139       C1141   1.486       .  S
C140       C1042   1.488       .  S
O141        V149   1.928       .  S
O141        C151   1.273       .  A
O142        V149   1.924       .  S
O142        C152   1.272       .  A
O143        V149   1.876       .  S
O143        C153   1.256       .  A
O144        V149   1.873       .  S
O144        C154   1.257       .  A
O145        V150   1.916       .  S
O145        C154   1.269       .  A
O146        V150   1.914       .  S
O146        C153   1.269       .  A
O147        V150   1.866       .  S
O147        C152   1.256       .  A
O148        V150   1.868       .  S
O148        C151   1.257       .  A
V149        V150   2.082       .  T
C151       C1013   1.497       .  S
C152       C1109   1.487       .  S
C153        C994   1.471       .  S
C154       C1026   1.477       .  S
O155        V163   1.916       .  S
O155        C165   1.270       .  A
O156        V163   1.915       .  S
O156        C166   1.268       .  A
O157        V163   1.875       .  S
O157        C167   1.257       .  A
O158        V163   1.876       .  S
O158        C168   1.258       .  A
O159        V164   1.917       .  S
O159        C168   1.270       .  A
O160        V164   1.916       .  S
O160        C167   1.269       .  A
O161        V164   1.880       .  S
O161        C166   1.260       .  A
O162        V164   1.893       .  S
O162        C165   1.261       .  A
V163        V164   2.084       .  T
C165       C1077   1.493       .  S
C166        C978   1.485       .  S
C167       C1029   1.477       .  S
C168        C962   1.486       .  S
O169        V177   1.915       .  S
O169        C179   1.269       .  A
O170        V177   1.912       .  S
O170        C180   1.268       .  A
O171        V177   1.874       .  S
O171        C181   1.257       .  A
O172        V177   1.877       .  S
O172        C182   1.258       .  A
O173        V178   1.920       .  S
O173        C182   1.270       .  A
O174        V178   1.917       .  S
O174        C181   1.269       .  A
O175        V178   1.881       .  S
O175        C180   1.260       .  A
O176        V178   1.884       .  S
O176        C179   1.260       .  A
V177        V178   2.083       .  T
C179        C933   1.491       .  S
C180        C981   1.490       .  S
C181        C946   1.477       .  S
C182        C914   1.484       .  S
O183        V191   1.918       .  S
O183        C193   1.270       .  A
O184        V191   1.918       .  S
O184        C194   1.269       .  A
O185        V191   1.882       .  S
O185        C195   1.259       .  A
O186        V191   1.879       .  S
O186        C196   1.258       .  A
O187        V192   1.911       .  S
O187        C196   1.268       .  A
O188        V192   1.912       .  S
O188        C195   1.269       .  A
O189        V192   1.877       .  S
O189        C194   1.258       .  A
O190        V192   1.881       .  S
O190        C193   1.259       .  A
V191        V192   2.085       .  T
C193       C1010   1.490       .  S
C194        C898   1.475       .  S
C195        C882   1.479       .  S
C196        C949   1.475       .  S
O197       V1677   1.922       .  S
O197        C207   1.270   1_565  A
O198        V205   1.922   1_455  S
O198        C208   1.271       .  A
O199       V1677   1.871       .  S
O199        C209   1.257   1_565  A
O200        V205   1.879       .  S
O200       C1682   1.258       .  A
O201        V206   1.915       .  S
O201        C210   1.269   1_545  A
O202        V206   1.915       .  S
O202        C209   1.269       .  A
O203        V206   1.877   1_455  S
O203       C1680   1.259   1_545  A
O204        V206   1.876       .  S
O204        C207   1.258       .  A
V205       O1669   1.924       .  S
V205       O1671   1.875       .  S
V205       V1678   2.084       .  T
V206       V1677   2.081   1_545  T
C207        C930   1.483       .  S
C208       O1675   1.258       .  A
C208       C1058   1.493       .  S
C209        C866   1.485       .  S
C210       O1672   1.257       .  A
C210       C2322   1.490       .  S
O211        V219   1.916       .  S
O211        C221   1.270       .  A
O212        V219   1.918   1_455  S
O212        C222   1.270       .  A
O213        V219   1.870       .  S
O213        C223   1.257       .  A
O214        V219   1.876       .  S
O214        C224   1.259       .  A
O215        V220   1.919       .  S
O215        C224   1.270       .  A
O216        V220   1.916   1_565  S
O216        C223   1.270   1_565  A
O217       V1692   1.885   1_455  S
O217       C1694   1.259       .  A
O218        V220   1.879       .  S
O218        C221   1.258       .  A
V219        V220   2.082       .  T
V220       O1689   1.875   1_645  S
C221        C901   1.481       .  S
C222       O1689   1.258   1_545  A
C222       C2597   1.485       .  S
C223        C869   1.485       .  S
C224        C834   1.494       .  S
O225        V233   1.924       .  S
O225        C235   1.273       .  A
O226        V233   1.923       .  S
O226        C236   1.271       .  A
O227        V233   1.875       .  S
O227        C237   1.255       .  A
O228        V233   1.877       .  S
O228        C238   1.259       .  A
O229        V234   1.922       .  S
O229        C238   1.271       .  A
O230        V234   1.920       .  S
O230        C237   1.271       .  A
O231        V234   1.871       .  S
O231        C236   1.257       .  A
O232        V234   1.876       .  S
O232        C235   1.255       .  A
V233        V234   2.082       .  T
C235        C805   1.490       .  S
C236        C789   1.491       .  S
C237        C818   1.474       .  S
C238        C917   1.499       .  S
O239        V247   1.924       .  S
O239        C249   1.273       .  A
O240        V247   1.923       .  S
O240        C250   1.271       .  A
O241        V247   1.887       .  S
O241        C251   1.261       .  A
O242        V247   1.882       .  S
O242        C252   1.258       .  A
O243        V248   1.915       .  S
O243        C252   1.269       .  A
O244        V248   1.915       .  S
O244        C251   1.270       .  A
O245        V248   1.873       .  S
O245        C250   1.256       .  A
O246        V248   1.881       .  S
O246        C249   1.256       .  A
V247        V248   2.083       .  T
C249        C770   1.496       .  S
C250        C754   1.475       .  S
C251       C1362   1.502       .  S
C252        C821   1.475       .  S
O253        V261   1.920   1_455  S
O253        C263   1.270       .  A
O254        V261   1.919       .  S
O254        C264   1.270       .  A
O255        V261   1.865       .  S
O255        C265   1.257       .  A
O256        V261   1.864       .  S
O256        C266   1.255       .  A
O257        V262   1.927       .  S
O257        C266   1.272       .  A
O258        V262   1.927       .  S
O258        C265   1.272       .  A
O259        V262   1.878       .  S
O259        C264   1.258       .  A
O260        V262   1.880   1_455  S
O260        C263   1.257       .  A
V261        V262   2.084       .  T
C263        C722   1.479       .  S
C264        C757   1.483       .  S
C265       C1285   1.497       .  S
C266        C738   1.479       .  S
O267        V275   1.922       .  S
O267        C277   1.272       .  A
O268        V275   1.921   1_455  S
O268        C278   1.272       .  A
O269        V275   1.875       .  S
O269        C279   1.257       .  A
O270        V275   1.872       .  S
O270        C280   1.256       .  A
O271        V276   1.920       .  S
O271        C280   1.270       .  A
O272        V276   1.918       .  S
O272        C279   1.270       .  A
O273        V276   1.877   1_455  S
O273        C278   1.256       .  A
O274        V276   1.881       .  S
O274        C277   1.257       .  A
V275        V276   2.085       .  T
C277        C802   1.486       .  S
C278        C706   1.486       .  S
C279        C741   1.482       .  S
C280        C853   1.470       .  S
O281        V289   1.918       .  S
O281        C291   1.269       .  A
O282        V289   1.919       .  S
O282        C292   1.270       .  A
O283        V289   1.869       .  S
O283        C293   1.257       .  A
O284        V289   1.867       .  S
O284        C294   1.253       .  A
O285        V290   1.916   1_565  S
O285        C294   1.271   1_565  A
O286        V290   1.920       .  S
O286        C293   1.271       .  A
O287        V290   1.883       .  S
O287        C292   1.259       .  A
O288        V290   1.890   1_565  S
O288        C291   1.259   1_565  A
V289        V290   2.084       .  T
C291        C725   1.478   1_545  S
C292        C674   1.484       .  S
C293       C1157   1.495       .  S
C294        C690   1.478       .  S
O295       V1775   1.920       .  S
O295        C305   1.271   1_565  A
O296        V303   1.920       .  S
O296        C306   1.271       .  A
O297       V1775   1.874       .  S
O297        C307   1.254   1_565  A
O298        V303   1.868       .  S
O298        C308   1.256       .  A
O299        V304   1.911       .  S
O299       C1780   1.268       .  A
O300        V304   1.908       .  S
O300        C307   1.270       .  A
O301        V304   1.880       .  S
O301       C1778   1.257   1_545  A
O302        V304   1.883       .  S
O302        C305   1.260       .  A
V303       O1767   1.921       .  S
V303       O1769   1.872       .  S
V303       V1776   2.084       .  T
V304       V1775   2.086   1_545  T
C305        C661   1.490       .  S
C306       O1773   1.257       .  A
C306        C709   1.483       .  S
C307        C693   1.479       .  S
C308       O1771   1.269       .  A
C308       C1045   1.472       .  S
O309        V317   1.923       .  S
O309        C319   1.271       .  A
O310        V317   1.920       .  S
O310        C320   1.271       .  A
O311        V317   1.870       .  S
O311        C321   1.256       .  A
O312        V317   1.870       .  S
O312        C322   1.257       .  A
O313        V318   1.924       .  S
O313        C322   1.272       .  A
O314        V318   1.920       .  S
O314        C321   1.271       .  A
O315        V318   1.872       .  S
O315        C320   1.256       .  A
O316        V318   1.883       .  S
O316        C319   1.259       .  A
V317        V318   2.083       .  T
C319        C658   1.487       .  S
C320        C786   1.481       .  S
C321        C642   1.480       .  S
C322        C965   1.495       .  S
O323        V331   1.929       .  S
O323        C333   1.275       .  A
O324        V331   1.927       .  S
O324        C334   1.272       .  A
O325        V331   1.866       .  S
O325        C335   1.256       .  A
O326        V331   1.866       .  S
O326        C336   1.255       .  A
O327        V332   1.921       .  S
O327        C336   1.271       .  A
O328        V332   1.921       .  S
O328        C335   1.271       .  A
O329        V332   1.877       .  S
O329        C334   1.258       .  A
O330        V332   1.878       .  S
O330        C333   1.255       .  A
V331        V332   2.080       .  T
C333        C773   1.503       .  S
C334        C677   1.495       .  S
C335       C1205   1.492       .  S
C336        C645   1.477       .  S
O337        V345   1.911       .  S
O337        C347   1.268       .  A
O338        V345   1.911       .  S
O338        C348   1.268       .  A
O339        V345   1.879       .  S
O339        C349   1.260       .  A
O340        V345   1.880       .  S
O340        C350   1.260       .  A
O341        V346   1.915       .  S
O341        C350   1.269       .  A
O342        V346   1.916       .  S
O342        C349   1.269       .  A
O343        V346   1.884       .  S
O343        C348   1.260       .  A
O344        V346   1.887       .  S
O344        C347   1.261       .  A
V345        V346   2.082       .  T
C347        C610   1.489       .  S
C348        C594   1.487       .  S
C349       C1093   1.488       .  S
C350        C626   1.493       .  S
O351        V359   1.920       .  S
O351        C361   1.271       .  A
O352        V359   1.918       .  S
O352        C362   1.270       .  A
O353        V359   1.879       .  S
O353        C363   1.260       .  A
O354        V359   1.884       .  S
O354        C364   1.260       .  A
O355        V360   1.914       .  S
O355        C364   1.270       .  A
O356        V360   1.916       .  S
O356        C363   1.269       .  A
O357        V360   1.865       .  S
O357        C362   1.256       .  A
O358        V360   1.875       .  S
O358        C361   1.258       .  A
V359        V360   2.080       .  T
C361        C578   1.495       .  S
C362        C562   1.478       .  S
C363        C629   1.492       .  S
C364       C1173   1.498       .  S
O365       V1845   1.912       .  S
O365        C375   1.268       .  A
O366        V373   1.906       .  S
O366       C1848   1.267       .  A
O367        V373   1.882       .  S
O367       C1849   1.260       .  A
O368       V1845   1.880       .  S
O368        C378   1.258       .  A
O369        V374   1.906       .  S
O369        C378   1.266       .  A
O370        V374   1.909       .  S
O370        C377   1.267       .  A
O371        V374   1.881       .  S
O371        C376   1.260       .  A
O372        V374   1.878       .  S
O372        C375   1.260       .  A
V373       O1837   1.906       .  S
V373       O1840   1.880       .  S
V373       V1846   2.083       .  T
V374       V1845   2.085       .  T
C375        C885   1.494       .  S
C376       O1838   1.267       .  A
C376        C546   1.481       .  S
C377       O1839   1.259   1_545  A
C377       C2005   1.476       .  S
C378        C514   1.465       .  S
O379        V387   1.919       .  S
O379        C389   1.270       .  A
O380        V387   1.915       .  S
O380        C390   1.269       .  A
O381        V387   1.882       .  S
O381       C1863   1.259       .  A
O382        V387   1.880       .  S
O382        C392   1.260       .  A
O383       V1860   1.911   1_545  S
O383        C392   1.268       .  A
O384        V388   1.913       .  S
O384        C391   1.268       .  A
O385        V388   1.875       .  S
O385       C1862   1.259       .  A
O386        V388   1.881       .  S
O386       C1861   1.259       .  A
V387       V1860   2.085   1_545  T
V388       O1855   1.915       .  S
V388       V1859   2.084       .  T
C389       O1858   1.257   1_545  A
C389       C1410   1.482       .  S
C390       O1857   1.257   1_545  A
C390        C549   1.479       .  S
C391       O1853   1.258       .  A
C391        C482   1.472       .  S
C392        C498   1.487       .  S
O393        V401   1.914       .  S
O393        C403   1.269       .  A
O394        V401   1.917       .  S
O394        C404   1.269       .  A
O395        V401   1.881       .  S
O395        C405   1.259       .  A
O396        V401   1.886       .  S
O396        C406   1.260       .  A
O397        V402   1.916       .  S
O397        C406   1.270       .  A
O398        V402   1.918       .  S
O398        C405   1.270       .  A
O399        V402   1.870       .  S
O399        C404   1.258       .  A
O400        V402   1.874       .  S
O400        C403   1.257       .  A
V401        V402   2.083       .  T
C403        C466   1.479       .  S
C404        C997   1.488       .  S
C405        C597   1.483       .  S
C406        C530   1.495       .  S
O407        V415   1.915       .  S
O407        C417   1.269       .  A
O408        V415   1.916       .  S
O408        C418   1.269       .  A
O409        V415   1.873       .  S
O409        C419   1.257       .  A
O410        V415   1.879       .  S
O410        C420   1.259       .  A
O411        V416   1.920       .  S
O411        C420   1.270       .  A
O412        V416   1.920       .  S
O412        C419   1.270       .  A
O413        V416   1.865       .  S
O413        C418   1.256       .  A
O414        V416   1.870       .  S
O414        C417   1.258       .  A
V415        V416   2.084       .  T
C417       C1237   1.491       .  S
C418        C469   1.476       .  S
C419        C485   1.477       .  S
C420        C581   1.489       .  S
O421        V429   1.916       .  S
O421        C431   1.269       .  A
O422        V429   1.913   1_655  S
O422        C432   1.268       .  A
O423        V429   1.876       .  S
O423        C433   1.258   1_455  A
O424        V429   1.874       .  S
O424        C434   1.259   1_455  A
O425        V430   1.920       .  S
O425        C434   1.270       .  A
O426        V430   1.919       .  S
O426        C433   1.270       .  A
O427        V430   1.876       .  S
O427        C432   1.258       .  A
O428        V430   1.880   1_455  S
O428        C431   1.259       .  A
V429        V430   2.083   1_455  T
C431        C613   1.481       .  S
C432        C517   1.474       .  S
C433        C837   1.482       .  S
C434        C453   1.492       .  S
O435        V443   1.918       .  S
O435        C445   1.269       .  A
O436        V443   1.914       .  S
O436        C446   1.269       .  A
O437        V443   1.871   1_455  S
O437        C447   1.258       .  A
O438        V443   1.878       .  S
O438        C448   1.259       .  A
O439        V444   1.915       .  S
O439        C448   1.269       .  A
O440        V444   1.911   1_455  S
O440        C447   1.268       .  A
O441        V444   1.879       .  S
O441        C446   1.259       .  A
O442        V444   1.878       .  S
O442        C445   1.257       .  A
V443        V444   2.084       .  T
C445       C1317   1.469       .  S
C446        C450   1.493       .  S
C447        C565   1.487       .  S
C448        C501   1.481       .  S
C449        C450   1.413       .  A
C449        C454   1.408   1_554  A
C449        H456   1.082       .  S
C450        C451   1.417       .  A
C451        C452   1.405   1_554  A
C451        C458   1.521       .  S
C452        C453   1.411       .  A
C452        H457   1.082       .  S
C453        C454   1.416       .  A
C454        C455   1.520       .  S
C455        F459   1.385       .  S
C455        F460   1.383       .  S
C455        F461   1.383   1_655  S
C458        F462   1.384       .  S
C458        F463   1.383   1_655  S
C458        F464   1.385   1_554  S
C465        C466   1.410       .  A
C465        C470   1.406   1_556  A
C465        H472   1.083       .  S
C466        C467   1.414       .  A
C467        C468   1.401   1_556  A
C467        C474   1.518       .  S
C468        C469   1.407       .  A
C468        H473   1.083       .  S
C469        C470   1.413       .  A
C470        C471   1.519       .  S
C471        F475   1.385   1_554  S
C471        F476   1.383       .  S
C471        F477   1.383       .  S
C474        F478   1.380       .  S
C474        F479   1.383       .  S
C474        F480   1.385       .  S
C481        C482   1.407       .  A
C481        C486   1.410       .  A
C481        H488   1.083       .  S
C482        C483   1.411       .  A
C483        C484   1.402       .  A
C483       C1962   1.519       .  S
C484        C485   1.406       .  A
C484        H489   1.083       .  S
C485        C486   1.415       .  A
C486        C487   1.518       .  S
C487        F491   1.384       .  S
C487        F492   1.382       .  S
C487        F493   1.383       .  S
C490       C1955   1.520       .  S
C490        F494   1.383       .  S
C490        F495   1.382       .  S
C490        F496   1.385       .  S
C497        C498   1.411       .  A
C497        C502   1.406       .  A
C497        H504   1.083       .  S
C498        C499   1.418       .  A
C499        C500   1.406       .  A
C499        C506   1.520   1_545  S
C500        C501   1.407       .  A
C500        H505   1.083       .  S
C501        C502   1.413       .  A
C502        C503   1.518       .  S
C503        F507   1.385       .  S
C503        F508   1.382       .  S
C503        F509   1.381       .  S
C506        F510   1.384       .  S
C506        F511   1.383       .  S
C506        F512   1.385       .  S
C513        C514   1.403       .  A
C513        C518   1.406       .  A
C513        H520   1.079       .  S
C514        C515   1.410       .  A
C515        C516   1.403       .  A
C515        C522   1.519       .  S
C516        C517   1.408       .  A
C516        H521   1.079       .  S
C517        C518   1.415       .  A
C518        C519   1.518       .  S
C519        F523   1.383       .  S
C519        F524   1.382       .  S
C519        F525   1.385       .  S
C522        F526   1.384       .  S
C522        F527   1.383       .  S
C522        F528   1.383       .  S
C529        C530   1.414       .  A
C529        C534   1.411       .  A
C529        H536   1.081       .  S
C530        C531   1.419       .  A
C531        C532   1.406       .  A
C531        C538   1.520       .  S
C532        C533   1.407       .  A
C532       H2009   1.081       .  S
C533       C1849   1.489       .  S
C533        C534   1.415       .  A
C534        C535   1.519       .  S
C535        F539   1.385       .  S
C535        F540   1.384       .  S
C535        F541   1.383       .  S
H537       C2004   1.082       .  S
C538        F542   1.383       .  S
C538        F543   1.384       .  S
C538       F2016   1.385       .  S
F544       C2010   1.385       .  S
C545        C546   1.410       .  A
C545        C550   1.406   1_556  A
C545        H552   1.082       .  S
C546       C2019   1.415   1_545  A
C547        C548   1.402   1_556  A
C547       C2018   1.415       .  A
C547        C554   1.519       .  S
C548       C2021   1.406       .  A
C548        H553   1.081       .  S
C549        C550   1.413       .  A
C549       C2020   1.408   1_545  A
C550        C551   1.519       .  S
C551        F555   1.385       .  S
C551        F556   1.384       .  S
C551        F557   1.382       .  S
C554        F558   1.383       .  S
C554        F559   1.382       .  S
C554        F560   1.385       .  S
C561        C562   1.409       .  A
C561        C566   1.403       .  A
C561        H568   1.083       .  S
C562        C563   1.411       .  A
C563        C564   1.404       .  A
C563        C570   1.519       .  S
C564        C565   1.414       .  A
C564        H569   1.082       .  S
C565        C566   1.417       .  A
C566        C567   1.521       .  S
C567        F571   1.385       .  S
C567        F572   1.384       .  S
C567        F573   1.383       .  S
C570        F574   1.384       .  S
C570        F575   1.383       .  S
C570        F576   1.385       .  S
C577        C578   1.414       .  A
C577        C582   1.408       .  A
C577        H584   1.081       .  S
C578        C579   1.418       .  A
C579        C580   1.408       .  A
C579        C586   1.520       .  S
C580        C581   1.410       .  A
C580        H585   1.081       .  S
C581        C582   1.414       .  A
C582        C583   1.520       .  S
C583        F587   1.385       .  S
C583        F588   1.383       .  S
C583        F589   1.383       .  S
C586        F590   1.384       .  S
C586        F591   1.383       .  S
C586        F592   1.385       .  S
C593        C594   1.410       .  A
C593        C598   1.408       .  A
C593        H600   1.082       .  S
C594        C595   1.417       .  A
C595        C596   1.406       .  A
C595        C602   1.520       .  S
C596        C597   1.406       .  A
C596        H601   1.079       .  S
C597        C598   1.414       .  A
C598        C599   1.519       .  S
C599        F603   1.385       .  S
C599        F604   1.382       .  S
C599        F605   1.384       .  S
C602        F606   1.384       .  S
C602        F607   1.383       .  S
C602        F608   1.385       .  S
C609        C610   1.411       .  A
C609        C614   1.409       .  A
C609        H616   1.082       .  S
C610        C611   1.419       .  A
C611        C612   1.406       .  A
C611        C618   1.520       .  S
C612        C613   1.406       .  A
C612        H617   1.083       .  S
C613        C614   1.414       .  A
C614        C615   1.519       .  S
C615        F619   1.384       .  S
C615        F620   1.382       .  S
C615        F621   1.382       .  S
C618        F622   1.383       .  S
C618        F623   1.384       .  S
C618        F624   1.385       .  S
C625        C626   1.412       .  A
C625        C630   1.407   1_556  A
C625        H632   1.082       .  S
C626        C627   1.418       .  A
C627        C628   1.407   1_556  A
C627        C634   1.521       .  S
C628        C629   1.411       .  A
C628        H633   1.082       .  S
C629        C630   1.416       .  A
C630        C631   1.520       .  S
C631        F635   1.385   1_554  S
C631        F636   1.383       .  S
C631        F637   1.383       .  S
C634        F638   1.383       .  S
C634        F639   1.384       .  S
C634        F640   1.385       .  S
C641        C642   1.411       .  A
C641        C646   1.405       .  A
C641        H648   1.083       .  S
C642        C643   1.412       .  A
C643        C644   1.404       .  A
C643        C650   1.517       .  S
C644        C645   1.409       .  A
C644        H649   1.083       .  S
C645        C646   1.411       .  A
C646        C647   1.519       .  S
C647        F651   1.385       .  S
C647        F652   1.382       .  S
C647        F653   1.384       .  S
C650        F654   1.382       .  S
C650        F655   1.383       .  S
C650        F656   1.385       .  S
C657        C658   1.408       .  A
C657        C662   1.409       .  A
C657        H664   1.083       .  S
C658        C659   1.414       .  A
C659        C660   1.409       .  A
C659        C666   1.518       .  S
C660        C661   1.411       .  A
C660        H665   1.083       .  S
C661        C662   1.417       .  A
C662        C663   1.519   1_545  S
C663        F667   1.385       .  S
C663        F668   1.384       .  S
C663        F669   1.383       .  S
C666        F670   1.382       .  S
C666        F671   1.384       .  S
C666        F672   1.385       .  S
C673        C674   1.408       .  A
C673        C678   1.410       .  A
C673        H680   1.085       .  S
C674        C675   1.413       .  A
C675        C676   1.408       .  A
C675        C682   1.520       .  S
C676        C677   1.413       .  A
C676        H681   1.084       .  S
C677        C678   1.418       .  A
C678        C679   1.518       .  S
C679        F683   1.385   1_545  S
C679        F684   1.383       .  S
C679        F685   1.383       .  S
C682        F686   1.382       .  S
C682        F687   1.384       .  S
C682        F688   1.385       .  S
C689        C690   1.399   1_565  A
C689        C694   1.406       .  A
C689        H696   1.082       .  S
C690        C691   1.425       .  A
C691        C692   1.400       .  A
C691        C698   1.523       .  S
C692        C693   1.398       .  A
C692        H697   1.082       .  S
C693        C694   1.426   1_545  A
C694       C2167   1.522       .  S
C695       C2166   1.522       .  S
C695        F699   1.385       .  S
C695        F700   1.383       .  S
C695        F701   1.383       .  S
C698        F702   1.383       .  S
C698        F703   1.383       .  S
C698        F704   1.385       .  S
C705        C706   1.401       .  A
C705        C710   1.408       .  A
C705       H2184   1.083       .  S
C706        C707   1.426       .  A
C707        C708   1.407       .  A
C707        C714   1.522       .  S
C708        C709   1.399       .  A
C708        H713   1.083       .  S
C709        C710   1.423       .  A
C710       C2183   1.521       .  S
C711       C2182   1.520       .  S
C711        F715   1.385       .  S
C711        F716   1.383       .  S
C711        F717   1.382       .  S
H712       C2177   1.083   1_545  S
C714        F718   1.383       .  S
C714        F719   1.384       .  S
C714        F720   1.385       .  S
C721        C722   1.401       .  A
C721        C726   1.408       .  A
C721        H728   1.085       .  S
C722       C2195   1.422       .  A
C723        C724   1.407   1_565  A
C723       C2194   1.419       .  A
C723        C730   1.519       .  S
C724        C725   1.399   1_545  A
C724        H729   1.085       .  S
C725       C2198   1.418       .  A
C726       C2197   1.418       .  A
C726        C727   1.518       .  S
C727        F731   1.385       .  S
C727        F733   1.382       .  S
C727       F2204   1.383       .  S
C730        F734   1.382   1_565  S
C730        F735   1.384       .  S
C730        F736   1.384   1_565  S
F732       C2199   1.384   1_545  S
C737        C738   1.409   1_455  A
C737        C742   1.405       .  A
C737        H744   1.083       .  S
C738        C739   1.412       .  A
C739        C740   1.408       .  A
C739        C746   1.518       .  S
C740        C741   1.410       .  A
C740        H745   1.083       .  S
C741        C742   1.414   1_655  A
C742        C743   1.520       .  S
C743        F747   1.385       .  S
C743        F748   1.383       .  S
C743        F749   1.384       .  S
C746        F750   1.383       .  S
C746        F751   1.383       .  S
C746        F752   1.385       .  S
C753        C754   1.406       .  A
C753        C758   1.408       .  A
C753        H760   1.084       .  S
C754        C755   1.412       .  A
C755        C756   1.406       .  A
C755        C762   1.518       .  S
C756        C757   1.409       .  A
C756        H761   1.084       .  S
C757        C758   1.416       .  A
C758        C759   1.518       .  S
C759        F763   1.385       .  S
C759        F764   1.383       .  S
C759        F765   1.383       .  S
C762        F766   1.382       .  S
C762        F767   1.383       .  S
C762        F768   1.385       .  S
C769        C770   1.399       .  A
C769        C774   1.410       .  A
C769        H776   1.085       .  S
C770        C771   1.428       .  A
C771        C772   1.410       .  A
C771        C778   1.523       .  S
C772        C773   1.403       .  A
C772        H777   1.085       .  S
C773        C774   1.434       .  A
C774        C775   1.524       .  S
C775        F779   1.385       .  S
C775        F780   1.383       .  S
C775        F781   1.384       .  S
C778        F782   1.384       .  S
C778        F783   1.383       .  S
C778        F784   1.385       .  S
C785        C786   1.409       .  A
C785        C790   1.408       .  A
C785        H792   1.083       .  S
C786        C787   1.411       .  A
C787        C788   1.405       .  A
C787        C794   1.520       .  S
C788        C789   1.414       .  A
C788        H793   1.082       .  S
C789        C790   1.417       .  A
C790        C791   1.519       .  S
C791        F795   1.385       .  S
C791        F796   1.383       .  S
C791        F797   1.384       .  S
C794        F798   1.383       .  S
C794        F799   1.383       .  S
C794        F800   1.384       .  S
C801        C802   1.399       .  A
C801        C806   1.409       .  A
C801        H808   1.080       .  S
C802        C803   1.423       .  A
C803        C804   1.408       .  A
C803        C810   1.521       .  S
C804        C805   1.402       .  A
C804        H809   1.080       .  S
C805        C806   1.428       .  A
C806        C807   1.522       .  S
C807        F811   1.385       .  S
C807        F812   1.384       .  S
C807        F813   1.383       .  S
C810        F814   1.383       .  S
C810        F815   1.384       .  S
C810        F816   1.385       .  S
C817        C818   1.400       .  A
C817        C822   1.406       .  A
C817        H824   1.083       .  S
C818        C819   1.421       .  A
C819        C820   1.407       .  A
C819        C826   1.521       .  S
C820        C821   1.400       .  A
C820        H825   1.083       .  S
C821        C822   1.419       .  A
C822        C823   1.519       .  S
C823        F827   1.385       .  S
C823        F828   1.384       .  S
C823        F829   1.382       .  S
C826        F830   1.382       .  S
C826        F831   1.383       .  S
C826        F832   1.385       .  S
C833        C834   1.414   1_455  A
C833        C838   1.406       .  A
C833        H840   1.082       .  S
C834        C835   1.418       .  A
C835        C836   1.407       .  A
C835        C842   1.520   1_545  S
C836        C837   1.408       .  A
C836        H841   1.083       .  S
C837        C838   1.411   1_655  A
C838        C839   1.520       .  S
C839        F843   1.385       .  S
C839        F844   1.382       .  S
C839        F845   1.382       .  S
C842        F846   1.383       .  S
C842        F848   1.385       .  S
C842       F2319   1.383       .  S
F847       C2314   1.383       .  S
C849        C850   1.411       .  A
C849        C854   1.407       .  A
C849        H856   1.083       .  S
C850       C1682   1.483       .  S
C850        C851   1.417   1_655  A
C851        C852   1.405       .  A
C851       C2330   1.519       .  S
C852        C853   1.404   1_455  A
C852        H857   1.084       .  S
C853        C854   1.409       .  A
C854        C855   1.517       .  S
C855        F859   1.385       .  S
C855        F860   1.383       .  S
C855        F861   1.383       .  S
C858       C2323   1.521   1_455  S
C858        F863   1.383   1_455  S
C858        F864   1.385       .  S
C858       F2334   1.383       .  S
F862       C2330   1.384       .  S
C865        C866   1.411   1_565  A
C865        C870   1.405       .  A
C865       H2344   1.082       .  S
C866        C867   1.415   1_655  A
C867        C868   1.405       .  A
C867        C874   1.521       .  S
C868        C869   1.411   1_455  A
C868        H873   1.082       .  S
C869        C870   1.415   1_545  A
C870       C2343   1.520       .  S
C871       C2342   1.519       .  S
C871        F875   1.385       .  S
C871        F876   1.384       .  S
C871        F877   1.383       .  S
H872       C2337   1.083       .  S
C874        F878   1.383       .  S
C874        F879   1.384       .  S
C874        F880   1.385       .  S
C881        C882   1.406       .  A
C881        C886   1.407       .  A
C881        H888   1.082       .  S
C882        C883   1.410       .  A
C883        C884   1.404       .  A
C883        C890   1.520       .  S
C884        C885   1.414       .  A
C884        H889   1.081       .  S
C885        C886   1.421       .  A
C886        C887   1.521   1_545  S
C887        F891   1.385       .  S
C887        F892   1.383       .  S
C887        F893   1.384       .  S
C890        F894   1.384       .  S
C890        F895   1.382       .  S
C890        F896   1.385       .  S
C897        C898   1.404       .  A
C897        C902   1.405       .  A
C897        H904   1.086       .  S
C898        C899   1.412       .  A
C899        C900   1.406       .  A
C899        C906   1.515       .  S
C900        C901   1.408       .  A
C900        H905   1.085       .  S
C901        C902   1.417       .  A
C902        C903   1.518       .  S
C903        F907   1.385       .  S
C903        F908   1.383       .  S
C903        F909   1.382       .  S
C906        F910   1.383   1_545  S
C906        F911   1.380       .  S
C906        F912   1.384   1_545  S
C913        C914   1.408       .  A
C913        C918   1.409       .  A
C913        H920   1.084       .  S
C914        C915   1.410       .  A
C915        C916   1.408       .  A
C915        C922   1.519       .  S
C916        C917   1.416       .  A
C916        H921   1.082       .  S
C917        C918   1.420       .  A
C918        C919   1.520       .  S
C919        F923   1.385       .  S
C919        F924   1.384       .  S
C919        F925   1.383       .  S
C922        F926   1.383       .  S
C922        F927   1.383       .  S
C922        F928   1.385       .  S
C929        C930   1.406       .  A
C929        C934   1.406       .  A
C929        H936   1.083       .  S
C930        C931   1.413       .  A
C931        C932   1.410       .  A
C931        C938   1.518   1_545  S
C932        C933   1.412       .  A
C932        H937   1.081       .  S
C933        C934   1.419       .  A
C934        C935   1.521       .  S
C935        F939   1.385       .  S
C935        F940   1.383       .  S
C935        F941   1.383       .  S
C938        F942   1.383       .  S
C938        F943   1.383       .  S
C938        F944   1.385       .  S
C945        C946   1.408       .  A
C945        C950   1.404       .  A
C945        H952   1.084       .  S
C946        C947   1.414       .  A
C947        C948   1.406       .  A
C947        C954   1.519       .  S
C948        C949   1.407       .  A
C948        H953   1.084       .  S
C949        C950   1.413       .  A
C950        C951   1.519       .  S
C951        F955   1.385       .  S
C951        F956   1.383       .  S
C951        F957   1.383       .  S
C954        F958   1.383       .  S
C954        F959   1.382       .  S
C954        F960   1.385       .  S
C961        C962   1.411       .  A
C961        C966   1.408       .  A
C961        H968   1.081       .  S
C962        C963   1.412       .  A
C963        C964   1.406       .  A
C963        C970   1.520       .  S
C964        C965   1.415       .  A
C964        H969   1.081       .  S
C965        C966   1.416       .  A
C966        C967   1.519       .  S
C967        F971   1.385       .  S
C967        F972   1.383       .  S
C967        F973   1.383       .  S
C970        F974   1.383       .  S
C970        F975   1.383       .  S
C970        F976   1.385       .  S
C977        C978   1.408       .  A
C977        C982   1.406       .  A
C977        H984   1.083       .  S
C978        C979   1.414       .  A
C979        C980   1.407       .  A
C979        C986   1.519       .  S
C980        C981   1.412       .  A
C980        H985   1.082       .  S
C981        C982   1.418       .  A
C982        C983   1.520       .  S
C983        F987   1.385       .  S
C983        F988   1.383       .  S
C983        F989   1.384       .  S
C986        F990   1.383       .  S
C986        F991   1.383       .  S
C986        F992   1.385       .  S
C993        C994   1.405       .  A
C993        C998   1.408       .  A
C993       H1000   1.083       .  S
C994        C995   1.408       .  A
C995        C996   1.402       .  A
C995       C1002   1.520       .  S
C996        C997   1.413       .  A
C996       H1001   1.082       .  S
C997        C998   1.419       .  A
C998        C999   1.519       .  S
C999       F1003   1.385       .  S
C999       F1004   1.383       .  S
C999       F1005   1.383       .  S
C1002      F1006   1.384       .  S
C1002      F1007   1.382       .  S
C1002      F1008   1.385       .  S
C1009      C1010   1.412       .  A
C1009      C1014   1.411       .  A
C1009      H1016   1.082       .  S
C1010      C1011   1.414       .  A
C1011      C1012   1.405       .  A
C1011      C1018   1.521       .  S
C1012      C1013   1.414       .  A
C1012      H1017   1.081       .  S
C1013      C1014   1.417       .  A
C1014      C1015   1.519       .  S
C1015      F1019   1.385       .  S
C1015      F1020   1.383       .  S
C1015      F1021   1.383       .  S
C1018      F1022   1.384       .  S
C1018      F1023   1.383       .  S
C1018      F1024   1.385       .  S
C1025      C1026   1.409       .  A
C1025      C1030   1.405       .  A
C1025      H1032   1.084       .  S
C1026      C1027   1.411       .  A
C1027      C1028   1.406       .  A
C1027      C1034   1.518       .  S
C1028      C1029   1.410       .  A
C1028      H1033   1.084       .  S
C1029      C1030   1.412       .  A
C1030      C1031   1.518       .  S
C1031      F1035   1.385       .  S
C1031      F1036   1.383       .  S
C1031      F1037   1.382       .  S
C1034      F1038   1.383       .  S
C1034      F1039   1.384       .  S
C1034      F1040   1.385       .  S
C1041      C1042   1.413       .  A
C1041      C1046   1.407       .  A
C1041      H1048   1.082       .  S
C1042      C1043   1.420       .  A
C1043      C1044   1.403       .  A
C1043      C1050   1.521       .  S
C1044      C1045   1.403       .  A
C1044      H1049   1.084       .  S
C1045      C1046   1.410       .  A
C1046      C1047   1.519       .  S
C1047      F1051   1.385       .  S
C1047      F1053   1.384       .  S
C1047      F2524   1.383       .  S
C1050      F1054   1.383       .  S
C1050      F1055   1.383       .  S
C1050      F1056   1.385       .  S
F1052      C2519   1.383       .  S
C1057      C1062   1.408       .  A
C1057      C2530   1.415   1_545  A
C1057      H1064   1.082       .  S
C1058      C1059   1.414       .  A
C1058      C2529   1.412       .  A
C1059      C1060   1.408       .  A
C1059      C1066   1.520       .  S
C1060      C1061   1.416       .  A
C1060      H1065   1.080       .  S
C1061      C2534   1.419       .  A
C1062      C2533   1.416   1_545  A
C1062      C1063   1.521       .  S
C1063      F1067   1.385       .  S
C1063      F1068   1.384       .  S
C1063      F1069   1.383       .  S
C1066      F1070   1.384       .  S
C1066      F1071   1.383       .  S
C1066      F1072   1.385       .  S
C1073      C1074   1.404       .  A
C1073      C1078   1.406       .  A
C1073      H1080   1.084       .  S
C1074      C1075   1.412       .  A
C1075      C1076   1.414       .  A
C1075      C1082   1.517       .  S
C1076      C1077   1.413       .  A
C1076      H1081   1.083       .  S
C1077      C1078   1.419       .  A
C1078      C1079   1.520       .  S
C1079      F1083   1.385       .  S
C1079      F1084   1.383       .  S
C1079      F1085   1.382       .  S
C1082      F1086   1.383       .  S
C1082      F1087   1.384       .  S
C1082      F1088   1.384       .  S
C1089      C1090   1.415       .  A
C1089      C1094   1.408       .  A
C1089      H1096   1.082       .  S
C1090      C1091   1.419       .  A
C1091      C1092   1.407       .  A
C1091      C1098   1.520       .  S
C1092      C1093   1.409       .  A
C1092      H1097   1.084       .  S
C1093      C1094   1.414       .  A
C1094      C1095   1.520       .  S
C1095      F1099   1.385       .  S
C1095      F1100   1.383       .  S
C1095      F1101   1.383       .  S
C1098      F1102   1.383       .  S
C1098      F1103   1.384       .  S
C1098      F1104   1.385       .  S
C1105      C1106   1.416       .  A
C1105      C1110   1.407       .  A
C1105      H1112   1.082       .  S
C1106      C1107   1.418       .  A
C1107      C1108   1.405       .  A
C1107      C1114   1.521       .  S
C1108      C1109   1.411       .  A
C1108      H1113   1.083       .  S
C1109      C1110   1.412       .  A
C1110      C1111   1.519       .  S
C1111      F1115   1.385       .  S
C1111      F1116   1.382       .  S
C1111      F1117   1.383       .  S
C1114      F1118   1.383       .  S
C1114      F1119   1.384       .  S
C1114      F1120   1.385       .  S
C1121      C1122   1.411       .  A
C1121      C1126   1.406       .  A
C1121      H1128   1.083       .  S
C1122      C1123   1.419       .  A
C1123      C1124   1.411       .  A
C1123      C1130   1.519       .  S
C1124      C1125   1.407       .  A
C1124      H1129   1.083       .  S
C1125      C1694   1.481       .  S
C1125      C1126   1.411       .  A
C1126      C2599   1.518       .  S
C1127      C2598   1.519       .  S
C1127      F1131   1.385       .  S
C1127      F1132   1.383       .  S
C1127      F1133   1.384       .  S
C1130      F1134   1.383       .  S
C1130      F1135   1.384       .  S
C1130      F1136   1.385       .  S
C1137      C1138   1.411       .  A
C1137      C1142   1.405       .  A
C1137      H1144   1.081       .  S
C1138      C1139   1.415       .  A
C1139      C1140   1.405       .  A
C1139      C1146   1.520       .  S
C1140      C1141   1.410       .  A
C1140      H1145   1.081       .  S
C1141      C1142   1.416       .  A
C1142      C1143   1.521       .  S
C1143      F1148   1.383       .  S
C1143      F1149   1.383       .  S
C1143      F2619   1.385       .  S
C1146      F1150   1.384       .  S
C1146      F1151   1.383       .  S
C1146      F1152   1.385       .  S
F1147      C2615   1.385       .  S
C1153      C1154   1.410       .  A
C1153      C1158   1.407       .  A
C1153      H1160   1.085       .  S
C1154      C1155   1.410       .  A
C1155      C1156   1.405       .  A
C1155      C1162   1.519       .  S
C1156      C1157   1.416       .  A
C1156      H1161   1.083       .  S
C1157      C1158   1.418       .  A
C1158      C1159   1.520   1_545  S
C1159      F1163   1.385       .  S
C1159      F1164   1.384       .  S
C1159      F1165   1.383       .  S
C1162      F1166   1.384       .  S
C1162      F1167   1.383       .  S
C1162      F1168   1.385       .  S
C1169      C1170   1.411       .  A
C1169      C1174   1.405       .  A
C1169      H1176   1.081       .  S
C1170      C1171   1.415       .  A
C1171      C1172   1.412       .  A
C1171      C1178   1.519       .  S
C1172      C1173   1.416       .  A
C1172      H1177   1.081       .  S
C1173      C1174   1.418       .  A
C1174      C1175   1.522       .  S
C1175      F1179   1.385       .  S
C1175      F1180   1.383       .  S
C1175      F1181   1.384       .  S
C1178      F1182   1.383       .  S
C1178      F1183   1.383       .  S
C1178      F1184   1.385       .  S
C1185      C1186   1.410       .  A
C1185      C1190   1.406       .  A
C1185      H1192   1.082       .  S
C1186      C1187   1.414       .  A
C1187      C1188   1.404       .  A
C1187      C1194   1.519       .  S
C1188      C1189   1.408       .  A
C1188      H1193   1.083       .  S
C1189      C1190   1.412       .  A
C1190      C1191   1.518       .  S
C1191      F1195   1.385       .  S
C1191      F1196   1.384       .  S
C1191      F1197   1.383       .  S
C1194      F1198   1.383       .  S
C1194      F1199   1.383       .  S
C1194      F1200   1.385       .  S
C1201      C1202   1.407       .  A
C1201      C1206   1.406       .  A
C1201      H1208   1.083       .  S
C1202      C1203   1.408       .  A
C1203      C1204   1.403       .  A
C1203      C1210   1.520       .  S
C1204      C1205   1.416       .  A
C1204      H1209   1.082       .  S
C1205      C1206   1.418       .  A
C1206      C1207   1.519       .  S
C1207      F1211   1.385       .  S
C1207      F1212   1.384       .  S
C1207      F1213   1.383       .  S
C1210      F1214   1.384       .  S
C1210      F1215   1.382   1_545  S
C1210      F1216   1.385   1_545  S
C1217      C1218   1.402       .  A
C1217      C1222   1.410       .  A
C1217      H1224   1.083       .  S
C1218      C1219   1.427       .  A
C1219      C1220   1.406       .  A
C1219      C1226   1.522       .  S
C1220      C1221   1.397       .  A
C1220      H1225   1.083       .  S
C1221      C1222   1.421       .  A
C1222      C1223   1.519       .  S
C1223      F1227   1.385       .  S
C1223      F1228   1.382   1_545  S
C1223      F1229   1.382       .  S
C1226      F1230   1.384       .  S
C1226      F1231   1.383       .  S
C1226      F1232   1.385       .  S
C1233      C1234   1.406       .  A
C1233      C1238   1.405       .  A
C1233      H1240   1.084       .  S
C1234      C1235   1.408       .  A
C1235      C1236   1.404       .  A
C1235      C2714   1.519       .  S
C1236      C1237   1.415       .  A
C1236      H1241   1.083       .  S
C1237      C1238   1.420       .  A
C1238      C1239   1.520       .  S
C1239      F1243   1.385       .  S
C1239      F1244   1.383       .  S
C1239      F1245   1.383       .  S
C1242      C2707   1.518       .  S
C1242      F1246   1.384       .  S
C1242      F1247   1.382       .  S
C1242      F1248   1.385       .  S
C1249      C1250   1.408       .  A
C1249      C1254   1.406       .  A
C1249      H1256   1.084       .  S
C1250      C1251   1.415       .  A
C1251      C1252   1.407       .  A
C1251      C2730   1.519       .  S
C1252      C1253   1.406       .  A
C1252      H1257   1.084       .  S
C1253      C1254   1.412       .  A
C1254      C1255   1.518       .  S
C1255      F1259   1.384       .  S
C1255      F1260   1.382       .  S
C1255      F1261   1.384       .  S
C1258      C2723   1.520       .  S
C1258      F1262   1.383       .  S
C1258      F1263   1.383       .  S
C1258      F1264   1.384       .  S
C1265      C1266   1.398       .  A
C1265      C1270   1.404   1_545  A
C1265      H1272   1.084   1_545  S
C1266      C1267   1.427       .  A
C1267      C1268   1.403       .  A
C1267      C1274   1.524       .  S
C1268      C1269   1.397       .  A
C1268      H1273   1.083       .  S
C1269      C1270   1.427   1_545  A
C1270      C2743   1.524       .  S
C1271      C2742   1.525       .  S
C1271      F1275   1.385       .  S
C1271      F1276   1.383       .  S
C1271      F1277   1.383       .  S
C1274      F1278   1.383       .  S
C1274      F1279   1.383       .  S
C1274      F1280   1.385       .  S
C1281      C1282   1.409       .  A
C1281      C1286   1.411       .  A
C1281      H1288   1.083       .  S
C1282      C1283   1.409       .  A
C1283      C1284   1.402       .  A
C1283      C1290   1.521   1_655  S
C1284      C1285   1.415       .  A
C1284      H1289   1.082   1_655  S
C1285      C1286   1.419       .  A
C1286      C1287   1.519       .  S
C1287      F1291   1.385       .  S
C1287      F1292   1.383       .  S
C1287      F1293   1.383       .  S
C1290      F1294   1.384       .  S
C1290      F1295   1.382   1_455  S
C1290      F1296   1.385       .  S
C1297      C1298   1.415       .  A
C1297      C1302   1.413       .  A
C1297      H1304   1.081       .  S
C1298      C1299   1.421       .  A
C1299      C1300   1.408       .  A
C1299      C1306   1.523       .  S
C1300      C1301   1.412       .  A
C1300      H1305   1.081       .  S
C1301      C1302   1.417       .  A
C1302      C1303   1.519       .  S
C1303      F1307   1.385       .  S
C1303      F1308   1.384       .  S
C1303      F1309   1.383       .  S
C1306      F1310   1.384       .  S
C1306      F1311   1.383       .  S
C1306      F1312   1.385       .  S
C1313      C1314   1.403   1_455  A
C1313      C1318   1.410       .  A
C1313      H1320   1.081       .  S
C1314      C1315   1.415       .  A
C1315      C1316   1.402       .  A
C1315      C1322   1.519       .  S
C1316      C1317   1.398       .  A
C1316      H1321   1.074       .  S
C1317      C1318   1.415   1_655  A
C1318      C1319   1.516       .  S
C1319      F1323   1.385       .  S
C1319      F1324   1.382       .  S
C1319      F1325   1.383       .  S
C1322      F1326   1.383       .  S
C1322      F1327   1.382       .  S
C1322      F1328   1.384       .  S
C1329      C1330   1.409       .  A
C1329      C1334   1.407       .  A
C1329      H1336   1.081       .  S
C1330      C1331   1.412       .  A
C1331      C1332   1.407       .  A
C1331      C1338   1.519       .  S
C1332      C1333   1.413       .  A
C1332      H1337   1.080       .  S
C1333      C1334   1.417       .  A
C1334      C1335   1.520       .  S
C1335      F1339   1.385       .  S
C1335      F1340   1.383       .  S
C1335      F1341   1.384       .  S
C1338      F1342   1.383       .  S
C1338      F1343   1.383       .  S
C1338      F1344   1.385       .  S
C1345      C1346   1.399   1_455  A
C1345      C1350   1.404       .  A
C1345      H1352   1.083       .  S
C1346      C1347   1.422       .  A
C1347      C1348   1.403       .  A
C1347      C1354   1.520       .  S
C1348      C1349   1.398       .  A
C1348      H1353   1.081       .  S
C1349      C1350   1.419   1_655  A
C1350      C1351   1.519       .  S
C1351      F1355   1.385       .  S
C1351      F1356   1.384       .  S
C1351      F1357   1.382       .  S
C1354      F1358   1.382       .  S
C1354      F1359   1.383       .  S
C1354      F1360   1.385       .  S
C1361      C1362   1.416       .  A
C1361      C1366   1.412       .  A
C1361      H1368   1.082       .  S
C1362      C1363   1.421       .  A
C1363      C1364   1.407       .  A
C1363      C1370   1.521       .  S
C1364      C1365   1.408       .  A
C1364      H1369   1.083       .  S
C1365      C1366   1.413       .  A
C1366      C1367   1.518       .  S
C1367      F2843   1.385       .  S
C1367      F2844   1.383       .  S
C1367      F2845   1.383       .  S
C1370      F1374   1.383       .  S
C1370      F1375   1.384       .  S
C1370      F1376   1.385       .  S
F1371      C2839   1.385   1_545  S
F1372      C2839   1.383       .  S
F1373      C2839   1.383   1_545  S
C1377      C1378   1.398       .  A
C1377      C1382   1.405       .  A
C1377      H1384   1.084       .  S
C1378      C1379   1.415       .  A
C1379      C1380   1.407       .  A
C1379      C1386   1.516       .  S
C1380      C1381   1.401       .  A
C1380      H1385   1.083       .  S
C1381      C1382   1.421       .  A
C1382      C1383   1.521       .  S
C1383      F1387   1.385       .  S
C1383      F1388   1.383       .  S
C1383      F1389   1.382       .  S
C1386      F1390   1.382       .  S
C1386      F1391   1.383       .  S
C1386      F1392   1.385       .  S
C1393      C1394   1.408   1_545  A
C1393      C1398   1.408       .  A
C1393      H2872   1.081       .  S
C1394      C1395   1.414       .  A
C1395      C1396   1.410       .  A
C1395      C1402   1.519       .  S
C1396      C1397   1.412   1_565  A
C1396      H1401   1.081       .  S
C1397      C1398   1.417       .  A
C1398      C2871   1.519       .  S
C1399      C2870   1.519       .  S
C1399      F1403   1.385       .  S
C1399      F2876   1.383       .  S
C1399      F2877   1.384       .  S
H1400      C2865   1.081       .  S
C1402      F1406   1.384       .  S
C1402      F1407   1.383       .  S
C1402      F1408   1.385       .  S
F1404      C2871   1.383       .  S
F1405      C2871   1.384       .  S
C1409      C1410   1.411   1_565  A
C1409      C1414   1.400       .  A
C1409      H1416   1.083       .  S
C1410      C2883   1.417       .  A
C1411      C1412   1.405       .  A
C1411      C2882   1.416       .  A
C1411      C1418   1.521       .  S
C1412      C2885   1.412       .  A
C1412      H1417   1.081       .  S
C1413      C1414   1.406       .  A
C1413      C2884   1.407   1_565  A
C1414      C1415   1.517       .  S
C1415      F1419   1.384       .  S
C1415      F1420   1.383       .  S
C1415      F1421   1.383       .  S
C1418      F1422   1.383       .  S
C1418      F1423   1.383       .  S
C1418      F1424   1.385       .  S
C1425      C1426   1.398   1_545  A
C1425      C1430   1.404       .  A
C1425      H1432   1.083       .  S
C1426      C2899   1.425       .  A
C1427      C1428   1.407       .  A
C1427      C2898   1.425       .  A
C1427      C1434   1.522       .  S
C1428      C2901   1.398       .  A
C1428      H1433   1.082       .  S
C1429      C1540   1.465   1_565  S
C1429      C1430   1.421   1_565  A
C1429      C2900   1.394       .  A
C1430      C1431   1.520       .  S
C1431      F1435   1.385       .  S
C1431      F1436   1.381       .  S
C1431      F1437   1.382       .  S
C1434      F1438   1.382       .  S
C1434      F1439   1.382       .  S
C1434      F1440   1.385       .  S
C1441      C1442   1.415       .  A
C1441      C1446   1.411       .  A
C1441      H1448   1.081       .  S
C1442      C1443   1.420       .  A
C1443      C1444   1.410       .  A
C1443      C1450   1.521       .  S
C1444      C1445   1.412       .  A
C1444      H1449   1.082       .  S
C1445      C1446   1.417       .  A
C1446      C1447   1.520       .  S
C1447      F1451   1.385       .  S
C1447      F1452   1.382       .  S
C1447      F1453   1.384       .  S
C1450      F1454   1.381       .  S
C1450      F1455   1.382       .  S
C1450      F1456   1.385       .  S
C1457      C1458   1.408       .  A
C1457      C1462   1.410       .  A
C1457      H1464   1.083       .  S
C1458      C1485   1.482       .  S
C1458      C2931   1.414       .  A
C1459      C1460   1.406       .  A
C1459      C2930   1.414       .  A
C1459      C1466   1.519       .  S
C1460      C2933   1.410       .  A
C1460      H1465   1.082       .  S
C1461      C1462   1.415       .  A
C1461      C2932   1.408       .  A
C1462      C1463   1.518       .  S
C1463      F1467   1.385       .  S
C1463      F1468   1.383       .  S
C1463      F1469   1.383       .  S
C1466      F1470   1.383       .  S
C1466      F1471   1.384       .  S
C1466      F1472   1.385       .  S
O1473      V1481   1.927       .  S
O1474      V1481   1.929       .  S
O1474      C1484   1.273       .  A
O1475      V1481   1.878       .  S
O1475      C1485   1.257       .  A
O1476      V1481   1.871       .  S
O1476      C1486   1.258       .  A
O1477      V1482   1.914       .  S
O1478      V1482   1.917       .  S
O1479      V1482   1.863       .  S
O1480      V1482   1.872       .  S
O1480      C1483   1.256       .  A
C1483      C2917   1.479       .  S
C1484      C2898   1.482       .  S
C1486      C2885   1.494       .  S
O1487      V1495   1.920       .  S
O1488      V1495   1.919       .  S
O1488      C1498   1.270       .  A
O1489      V1495   1.875       .  S
O1489      C1499   1.258       .  A
O1490      V1495   1.873       .  S
O1490      C1500   1.257       .  A
O1492      V1496   1.920       .  S
O1492      C1499   1.270       .  A
O1493      V1496   1.880       .  S
O1493      C1498   1.257       .  A
O1494      C1497   1.260       .  A
V1495      V1496   2.084       .  T
C1497      C2866   1.488       .  S
C1498      C2853   1.477       .  S
C1499      C2837   1.486       .  S
C1500      C2933   1.481       .  S
O1501      V1509   1.919       .  S
O1501      C1511   1.270       .  A
O1502      V1509   1.921   1_455  S
O1502      C1512   1.271       .  A
O1503      V1509   1.870       .  S
O1503      C1513   1.255       .  A
O1504      V1509   1.875       .  S
O1504      C1514   1.257       .  A
O1505      V1510   1.915       .  S
O1505      C1514   1.270       .  A
O1506      V1510   1.913       .  S
O1506      C1513   1.269       .  A
O1507      V1510   1.878   1_455  S
O1507      C1512   1.259       .  A
O1508      V1510   1.879       .  S
O1508      C1511   1.257       .  A
V1509      V1510   2.086       .  T
C1511      C2914   1.472       .  S
C1512      C2802   1.491       .  S
C1513      C2818   1.472       .  S
C1514      C2786   1.479       .  S
O1515      V1523   1.915       .  S
O1515      C1525   1.269       .  A
O1516      V1523   1.915   1_655  S
O1516      C1526   1.269       .  A
O1517      V1523   1.880   1_655  S
O1517      C1527   1.259       .  A
O1518      V1523   1.880       .  S
O1518      C1528   1.257   1_455  A
O1519      V1524   1.906       .  S
O1519      C1528   1.268       .  A
O1520      V1524   1.911       .  S
O1520      C1527   1.268       .  A
O1521      V1524   1.884       .  S
O1521      C1526   1.258       .  A
O1522      V1524   1.888   1_455  S
O1522      C1525   1.261       .  A
V1523      V1524   2.085   1_455  T
C1525      C2770   1.492       .  S
C1526      C2850   1.471       .  S
C1527      C2754   1.481       .  S
C1528      C2821   1.475       .  S
O1529      V1537   1.914   1_545  S
O1530      V1537   1.911       .  S
O1530      C1540   1.269   1_565  A
O1531      V1537   1.867       .  S
O1532      V1537   1.870       .  S
O1532      C1542   1.257   1_565  A
O1533      V1538   1.915       .  S
O1534      V1538   1.907       .  S
O1534      C1541   1.270       .  A
O1535      V1538   1.885       .  S
O1536      V1538   1.891       .  S
O1536      C1539   1.262       .  A
C1539      C2722   1.500       .  S
C1541      C2741   1.475       .  S
C1542      C2706   1.479   1_545  S
O1543      V1551   1.923       .  S
O1543      C1553   1.271       .  A
O1544      V1551   1.922       .  S
O1544      C1554   1.271       .  A
O1545      V1551   1.871       .  S
O1545      C1555   1.257       .  A
O1546      V1551   1.867       .  S
O1546      C1556   1.252       .  A
O1547      V1552   1.908       .  S
O1547      C1556   1.270       .  A
O1548      V1552   1.912       .  S
O1548      C1555   1.269       .  A
O1549      V1552   1.872       .  S
O1549      C1554   1.254       .  A
O1550      V1552   1.879       .  S
O1550      C1553   1.259       .  A
V1551      V1552   2.083       .  T
C1553      C2869   1.493       .  S
C1554      C2693   1.472       .  S
C1555      C2674   1.487       .  S
C1556      C2738   1.478       .  S
O1557      V1565   1.928       .  S
O1557      C1567   1.272       .  A
O1558      V1565   1.927       .  S
O1558      C1568   1.272       .  A
O1559      V1565   1.875       .  S
O1559      C1569   1.256       .  A
O1560      V1565   1.874       .  S
O1560      C1570   1.257       .  A
O1561      V1566   1.927       .  S
O1561      C1570   1.272       .  A
O1562      V1566   1.925       .  S
O1562      C1569   1.272       .  A
O1563      V1566   1.882       .  S
O1563      C1568   1.258       .  A
O1564      V1566   1.887       .  S
O1564      C1567   1.261       .  A
V1565      V1566   2.082       .  T
C1567      C2725   1.507       .  S
C1568      C2805   1.488       .  S
C1569      C2658   1.478       .  S
C1570      C2642   1.491       .  S
O1571      V1579   1.925       .  S
O1571      C1581   1.272       .  A
O1572      V1579   1.924       .  S
O1572      C1582   1.273       .  A
O1573      V1579   1.866       .  S
O1573      C1583   1.254       .  A
O1574      V1579   1.869       .  S
O1574      C1584   1.255       .  A
O1575      V1580   1.925       .  S
O1575      C1584   1.272       .  A
O1576      V1580   1.924       .  S
O1576      C1583   1.271       .  A
O1577      V1580   1.871       .  S
O1577      C1582   1.254       .  A
O1578      V1580   1.875       .  S
O1578      C1581   1.258       .  A
V1579      V1580   2.084       .  T
C1581      C2773   1.498       .  S
C1582      C2690   1.479       .  S
C1583      C2626   1.473       .  S
C1584      C2661   1.476       .  S
O1585      V1593   1.913       .  S
O1585      C1595   1.268       .  A
O1586      V1593   1.913       .  S
O1586      C1596   1.269       .  A
O1587      V1593   1.875       .  S
O1587      C1597   1.259       .  A
O1588      V1593   1.871       .  S
O1588      C1598   1.257       .  A
O1589      V1594   1.910       .  S
O1589      C1598   1.268       .  A
O1590      V1594   1.917       .  S
O1590      C1597   1.269       .  A
O1591      V1594   1.883       .  S
O1591      C1596   1.260       .  A
O1592      V1594   1.883       .  S
O1592      C1595   1.259       .  A
V1593      V1594   2.083       .  T
C1595      C2594   1.479       .  S
C1596      C2578   1.494       .  S
C1597      C2562   1.496       .  S
C1598      C2610   1.473       .  S
O1599      V1607   1.922       .  S
O1599      C1609   1.271       .  A
O1600      V1607   1.920       .  S
O1600      C1610   1.270       .  A
O1601      V1607   1.868       .  S
O1601      C1611   1.256       .  A
O1602      V1607   1.870       .  S
O1602      C1612   1.257       .  A
O1603      V1608   1.911       .  S
O1603      C1612   1.268       .  A
O1604      V1608   1.910       .  S
O1604      C1611   1.268       .  A
O1605      V1608   1.874       .  S
O1605      C1610   1.259       .  A
O1606      V1608   1.882       .  S
O1606      C1609   1.260       .  A
V1607      V1608   2.084       .  T
C1609      C2546   1.495       .  S
C1610      C2533   1.492       .  S
C1611      C2613   1.471       .  S
C1612      C2514   1.473       .  S
O1613      V1621   1.920       .  S
O1613      C1623   1.271       .  A
O1614      V1621   1.919       .  S
O1614      C1624   1.270       .  A
O1615      V1621   1.876       .  S
O1615      C1625   1.257       .  A
O1616      V1621   1.869       .  S
O1616      C1626   1.257       .  A
O1617      V1622   1.912       .  S
O1617      C1626   1.268       .  A
O1618      V1622   1.910       .  S
O1618      C1625   1.268       .  A
O1619      V1622   1.878       .  S
O1619      C1624   1.259       .  A
O1620      V1622   1.884       .  S
O1620      C1623   1.260       .  A
V1621      V1622   2.084       .  T
C1623      C2485   1.497       .  S
C1624      C2581   1.489       .  S
C1625      C2466   1.472       .  S
C1626      C2498   1.475       .  S
O1627      V1635   1.913       .  S
O1627      C1637   1.268       .  A
O1628      V1635   1.911       .  S
O1628      C1638   1.268       .  A
O1629      V1635   1.875       .  S
O1629      C1639   1.258       .  A
O1630      V1635   1.876       .  S
O1630      C1640   1.258       .  A
O1631      V1636   1.912       .  S
O1631      C1640   1.268       .  A
O1632      V1636   1.910       .  S
O1632      C1639   1.268       .  A
O1633      V1636   1.889       .  S
O1633      C1638   1.261       .  A
O1634      V1636   1.893       .  S
O1634      C1637   1.263       .  A
V1635      V1636   2.083       .  T
C1637      C2549   1.501       .  S
C1638      C2450   1.487       .  S
C1639      C2501   1.476       .  S
C1640      C2434   1.479       .  S
O1641      V1649   1.917       .  S
O1641      C1651   1.270       .  A
O1642      V1649   1.916       .  S
O1642      C1652   1.269       .  A
O1643      V1649   1.871       .  S
O1643      C1653   1.257       .  A
O1644      V1649   1.876       .  S
O1644      C1654   1.257       .  A
O1645      V1650   1.918       .  S
O1645      C1654   1.269       .  A
O1646      V1650   1.915       .  S
O1646      C1653   1.269       .  A
O1647      V1650   1.877       .  S
O1647      C1652   1.260       .  A
O1648      V1650   1.885       .  S
O1648      C1651   1.260       .  A
V1649      V1650   2.084       .  T
C1651      C2405   1.488       .  S
C1652      C2453   1.489       .  S
C1653      C2418   1.478       .  S
C1654      C2386   1.471       .  S
O1655      V1663   1.924       .  S
O1655      C1665   1.271       .  A
O1656      V1663   1.924       .  S
O1656      C1666   1.271       .  A
O1657      V1663   1.869       .  S
O1657      C1667   1.258       .  A
O1658      V1663   1.873       .  S
O1658      C1668   1.257       .  A
O1659      V1664   1.914       .  S
O1659      C1668   1.269       .  A
O1660      V1664   1.916       .  S
O1660      C1667   1.269       .  A
O1661      V1664   1.879       .  S
O1661      C1666   1.259       .  A
O1662      V1664   1.881       .  S
O1662      C1665   1.260       .  A
V1663      V1664   2.080       .  T
C1665      C2482   1.503       .  S
C1666      C2370   1.491       .  S
C1667      C2354   1.490       .  S
C1668      C2421   1.480       .  S
O1669      C1679   1.271       .  A
O1670      V1677   1.917   1_455  S
O1670      C1680   1.270       .  A
O1671      C1681   1.258       .  A
O1672      V1677   1.872       .  S
O1673      V1678   1.914       .  S
O1673      C1682   1.269       .  A
O1674      V1678   1.911       .  S
O1674      C1681   1.268       .  A
O1675      V1678   1.876   1_455  S
O1676      V1678   1.877       .  S
O1676      C1679   1.257       .  A
C1679      C2402   1.479       .  S
C1680      C2530   1.497       .  S
C1681      C2338   1.479       .  S
O1683      V1691   1.920   1_655  S
O1683      C1693   1.271       .  A
O1684      V1691   1.920       .  S
O1684      C1694   1.270       .  A
O1685      V1691   1.869       .  S
O1685      C1695   1.257   1_455  A
O1686      V1691   1.875       .  S
O1686      C1696   1.257   1_455  A
O1687      V1692   1.918       .  S
O1687      C1696   1.271       .  A
O1688      V1692   1.915       .  S
O1688      C1695   1.269       .  A
O1690      V1692   1.883       .  S
O1690      C1693   1.260       .  A
V1691      V1692   2.083   1_455  T
C1693      C2373   1.497       .  S
C1695      C2341   1.482       .  S
C1696      C2306   1.482       .  S
O1697      V1705   1.923       .  S
O1697      C1707   1.273       .  A
O1698      V1705   1.922       .  S
O1698      C1708   1.271       .  A
O1699      V1705   1.871       .  S
O1699      C1709   1.254       .  A
O1700      V1705   1.878       .  S
O1700      C1710   1.258       .  A
O1701      V1706   1.919       .  S
O1701      C1710   1.271       .  A
O1702      V1706   1.919       .  S
O1702      C1709   1.270       .  A
O1703      V1706   1.872       .  S
O1703      C1708   1.257       .  A
O1704      V1706   1.872       .  S
O1704      C1707   1.254       .  A
V1705      V1706   2.083       .  T
C1707      C2277   1.486       .  S
C1708      C2261   1.487       .  S
C1709      C2290   1.473       .  S
C1710      C2389   1.489       .  S
O1711      V1719   1.924       .  S
O1711      C1721   1.273       .  A
O1712      V1719   1.924       .  S
O1712      C1722   1.271       .  A
O1713      V1719   1.883       .  S
O1713      C1723   1.260       .  A
O1714      V1719   1.881       .  S
O1714      C1724   1.257       .  A
O1715      V1720   1.911       .  S
O1715      C1724   1.269       .  A
O1716      V1720   1.913       .  S
O1716      C1723   1.269       .  A
O1717      V1720   1.871       .  S
O1717      C1722   1.256       .  A
O1718      V1720   1.877       .  S
O1718      C1721   1.256       .  A
V1719      V1720   2.083       .  T
C1721      C2242   1.489       .  S
C1722      C2226   1.480       .  S
C1723      C2834   1.498       .  S
C1724      C2293   1.472       .  S
O1725      V1733   1.924   1_455  S
O1725      C1735   1.271       .  A
O1726      V1733   1.920       .  S
O1726      C1736   1.271       .  A
O1727      V1733   1.874       .  S
O1727      C1737   1.259       .  A
O1728      V1733   1.868       .  S
O1728      C1738   1.256       .  A
O1729      V1734   1.916       .  S
O1729      C1738   1.269       .  A
O1730      V1734   1.919       .  S
O1730      C1737   1.270       .  A
O1731      V1734   1.879       .  S
O1731      C1736   1.258       .  A
O1732      V1734   1.880   1_455  S
O1732      C1735   1.257       .  A
V1733      V1734   2.084       .  T
C1735      C2194   1.480       .  S
C1736      C2229   1.488       .  S
C1737      C2757   1.496       .  S
C1738      C2210   1.472       .  S
O1739      V1747   1.920       .  S
O1739      C1749   1.270       .  A
O1740      V1747   1.921   1_455  S
O1740      C1750   1.271       .  A
O1741      V1747   1.868       .  S
O1741      C1751   1.255       .  A
O1742      V1747   1.867       .  S
O1742      C1752   1.256       .  A
O1743      V1748   1.918       .  S
O1743      C1752   1.270       .  A
O1744      V1748   1.915       .  S
O1744      C1751   1.270       .  A
O1745      V1748   1.875   1_455  S
O1745      C1750   1.255       .  A
O1746      V1748   1.877       .  S
O1746      C1749   1.256       .  A
V1747      V1748   2.086       .  T
C1749      C2274   1.476       .  S
C1750      C2178   1.480       .  S
C1751      C2213   1.472       .  S
C1752      C2325   1.477       .  S
O1753      V1761   1.914       .  S
O1753      C1763   1.269       .  A
O1754      V1761   1.913       .  S
O1754      C1764   1.268       .  A
O1755      V1761   1.873       .  S
O1755      C1765   1.257       .  A
O1756      V1761   1.870       .  S
O1756      C1766   1.255       .  A
O1757      V1762   1.915       .  S
O1757      C1766   1.269       .  A
O1758      V1762   1.916       .  S
O1758      C1765   1.270       .  A
O1759      V1762   1.881       .  S
O1759      C1764   1.259       .  A
O1760      V1762   1.887       .  S
O1760      C1763   1.258       .  A
V1761      V1762   2.085       .  T
C1763      C2197   1.475       .  S
C1764      C2146   1.478       .  S
C1765      C2629   1.488       .  S
C1766      C2162   1.474       .  S
O1767      C1777   1.271       .  A
O1768      V1775   1.917       .  S
O1768      C1778   1.270       .  A
O1769      C1779   1.254       .  A
O1770      V1775   1.872       .  S
O1770      C1780   1.256   1_565  A
O1771      V1776   1.919       .  S
O1772      V1776   1.914       .  S
O1772      C1779   1.271       .  A
O1773      V1776   1.881       .  S
O1774      V1776   1.880       .  S
O1774      C1777   1.259       .  A
C1777      C2133   1.494       .  S
C1778      C2181   1.475       .  S
C1779      C2165   1.478       .  S
C1780      C2517   1.461       .  S
O1781      V1789   1.919       .  S
O1781      C1791   1.271       .  A
O1782      V1789   1.917       .  S
O1782      C1792   1.269       .  A
O1783      V1789   1.870       .  S
O1783      C1793   1.256       .  A
O1784      V1789   1.871       .  S
O1784      C1794   1.258       .  A
O1785      V1790   1.918       .  S
O1785      C1794   1.270       .  A
O1786      V1790   1.915       .  S
O1786      C1793   1.269       .  A
O1787      V1790   1.876       .  S
O1787      C1792   1.257       .  A
O1788      V1790   1.884       .  S
O1788      C1791   1.259       .  A
V1789      V1790   2.083       .  T
C1791      C2130   1.489       .  S
C1792      C2258   1.477       .  S
C1793      C2114   1.471       .  S
C1794      C2437   1.494       .  S
O1795      V1803   1.921       .  S
O1795      C1805   1.274       .  A
O1796      V1803   1.921       .  S
O1796      C1806   1.270       .  A
O1797      V1803   1.868       .  S
O1797      C1807   1.257       .  A
O1798      V1803   1.869       .  S
O1798      C1808   1.255       .  A
O1799      V1804   1.917       .  S
O1799      C1808   1.270       .  A
O1800      V1804   1.920       .  S
O1800      C1807   1.270       .  A
O1801      V1804   1.875       .  S
O1801      C1806   1.259       .  A
O1802      V1804   1.882       .  S
O1802      C1805   1.256       .  A
V1803      V1804   2.082       .  T
C1805      C2245   1.499       .  S
C1806      C2149   1.487       .  S
C1807      C2677   1.485       .  S
C1808      C2117   1.471       .  S
O1809      V1817   1.923       .  S
O1809      C1819   1.271       .  A
O1810      V1817   1.919       .  S
O1810      C1820   1.270       .  A
O1811      V1817   1.879       .  S
O1811      C1821   1.258       .  A
O1812      V1817   1.883       .  S
O1812      C1822   1.259       .  A
O1813      V1818   1.918       .  S
O1813      C1822   1.270       .  A
O1814      V1818   1.917       .  S
O1814      C1821   1.270       .  A
O1815      V1818   1.876       .  S
O1815      C1820   1.257       .  A
O1816      V1818   1.878       .  S
O1816      C1819   1.258       .  A
V1817      V1818   2.085       .  T
C1819      C2082   1.487       .  S
C1820      C2066   1.480       .  S
C1821      C2565   1.484       .  S
C1822      C2098   1.484       .  S
O1823      V1831   1.918       .  S
O1823      C1833   1.271       .  A
O1824      V1831   1.913       .  S
O1824      C1834   1.268       .  A
O1825      V1831   1.879       .  S
O1825      C1835   1.258       .  A
O1826      V1831   1.880       .  S
O1826      C1836   1.260       .  A
O1827      V1832   1.922       .  S
O1827      C1836   1.271       .  A
O1828      V1832   1.921       .  S
O1828      C1835   1.271       .  A
O1829      V1832   1.881       .  S
O1829      C1834   1.259       .  A
O1830      V1832   1.886       .  S
O1830      C1833   1.258       .  A
V1831      V1832   2.083       .  T
C1833      C2050   1.491       .  S
C1834      C2034   1.484       .  S
C1835      C2101   1.482       .  S
C1836      C2645   1.501       .  S
O1837      C1847   1.266       .  A
O1838      V1845   1.908       .  S
O1839      V1845   1.881   1_565  S
O1840      C1850   1.260       .  A
O1841      V1846   1.916       .  S
O1841      C1850   1.269       .  A
O1842      V1846   1.920       .  S
O1842      C1849   1.270       .  A
O1843      V1846   1.884       .  S
O1843      C1848   1.260       .  A
O1844      V1846   1.881       .  S
O1844      C1847   1.260       .  A
C1847      C2357   1.482       .  S
C1848      C2018   1.481       .  S
C1850      C1986   1.496       .  S
O1851      V1859   1.915       .  S
O1851      C1861   1.269       .  A
O1852      V1859   1.913       .  S
O1852      C1862   1.268       .  A
O1853      V1859   1.885       .  S
O1854      V1859   1.885       .  S
O1854      C1864   1.261       .  A
O1855      C1864   1.268       .  A
O1856      V1860   1.910       .  S
O1856      C1863   1.268   1_565  A
O1857      V1860   1.870       .  S
O1858      V1860   1.868       .  S
C1861      C2882   1.493       .  S
C1862      C2021   1.480       .  S
C1863      C1954   1.476   1_545  S
C1864      C1970   1.488       .  S
O1865      V1873   1.914       .  S
O1865      C1875   1.269       .  A
O1866      V1873   1.916       .  S
O1866      C1876   1.269       .  A
O1867      V1873   1.883       .  S
O1867      C1877   1.260       .  A
O1868      V1873   1.884       .  S
O1868      C1878   1.260       .  A
O1869      V1874   1.909       .  S
O1869      C1878   1.267       .  A
O1870      V1874   1.910       .  S
O1870      C1877   1.267       .  A
O1871      V1874   1.869       .  S
O1871      C1876   1.258       .  A
O1872      V1874   1.870       .  S
O1872      C1875   1.257       .  A
V1873      V1874   2.083       .  T
C1875      C1938   1.475       .  S
C1876      C2469   1.488       .  S
C1877      C2069   1.486       .  S
C1878      C2002   1.486       .  S
O1879      V1887   1.911       .  S
O1879      C1889   1.268       .  A
O1880      V1887   1.908       .  S
O1880      C1890   1.267       .  A
O1881      V1887   1.877       .  S
O1881      C1891   1.259       .  A
O1882      V1887   1.884       .  S
O1882      C1892   1.258       .  A
O1883      V1888   1.921       .  S
O1883      C1892   1.271       .  A
O1884      V1888   1.917   1_545  S
O1884      C1891   1.269   1_545  A
O1885      V1888   1.878       .  S
O1885      C1890   1.258       .  A
O1886      V1888   1.878       .  S
O1886      C1889   1.257       .  A
V1887      V1888   2.086       .  T
C1889      C2709   1.467       .  S
C1890      C1941   1.476       .  S
C1891      C1957   1.484       .  S
C1892      C2053   1.485       .  S
O1893      V1901   1.918       .  S
O1893      C1903   1.270       .  A
O1894      V1901   1.920   1_655  S
O1894      C1904   1.270       .  A
O1895      V1901   1.875       .  S
O1895      C1905   1.256   1_455  A
O1896      V1901   1.873       .  S
O1896      C1906   1.257   1_455  A
O1897      V1902   1.921       .  S
O1897      C1906   1.270       .  A
O1898      V1902   1.920       .  S
O1898      C1905   1.270       .  A
O1899      V1902   1.880       .  S
O1899      C1904   1.260       .  A
O1900      V1902   1.884   1_455  S
O1900      C1903   1.260       .  A
V1901      V1902   2.084   1_455  T
C1903      C2085   1.495       .  S
C1904      C1989   1.491       .  S
C1905      C2309   1.471       .  S
C1906      C1925   1.480       .  S
O1907      V1915   1.917       .  S
O1907      C1917   1.269       .  A
O1908      V1915   1.916       .  S
O1908      C1918   1.269       .  A
O1909      V1915   1.881   1_455  S
O1909      C1919   1.260       .  A
O1910      V1915   1.887       .  S
O1910      C1920   1.261       .  A
O1911      V1916   1.913       .  S
O1911      C1920   1.269       .  A
O1912      V1916   1.912   1_455  S
O1912      C1919   1.268       .  A
O1913      V1916   1.877       .  S
O1913      C1918   1.257       .  A
O1914      V1916   1.871       .  S
O1914      C1917   1.255       .  A
V1915      V1916   2.084       .  T
C1917      C2789   1.464       .  S
C1918      C1922   1.479       .  S
C1919      C2037   1.492       .  S
C1920      C1973   1.496       .  S
C1921      C1922   1.408       .  A
C1921      C1926   1.407   1_554  A
C1921      H1928   1.083       .  S
C1922      C1923   1.414   1_654  A
C1923      C1924   1.405       .  A
C1923      C1930   1.519   1_556  S
C1924      C1925   1.407   1_455  A
C1924      H1929   1.083       .  S
C1925      C1926   1.414       .  A
C1926      C1927   1.518       .  S
C1927      F1931   1.385       .  S
C1927      F1932   1.383       .  S
C1927      F1933   1.383       .  S
C1930      F1934   1.382       .  S
C1930      F1935   1.383       .  S
C1930      F1936   1.385   1_554  S
C1937      C1938   1.406       .  A
C1937      C1942   1.402       .  A
C1937      H1944   1.081       .  S
C1938      C1939   1.413       .  A
C1939      C1940   1.405   1_556  A
C1939      C1946   1.519       .  S
C1940      C1941   1.408       .  A
C1940      H1945   1.083       .  S
C1941      C1942   1.415   1_554  A
C1942      C1943   1.520   1_556  S
C1943      F1947   1.385   1_554  S
C1943      F1948   1.383       .  S
C1943      F1949   1.383       .  S
C1946      F1950   1.384       .  S
C1946      F1951   1.383   1_565  S
C1946      F1952   1.384   1_565  S
C1953      C1954   1.407   1_545  A
C1953      C1958   1.408       .  A
C1953      H1960   1.083       .  S
C1954      C1955   1.412       .  A
C1955      C1956   1.403       .  A
C1956      C1957   1.409       .  A
C1956      H1961   1.083       .  S
C1957      C1958   1.417   1_565  A
C1958      C1959   1.518       .  S
C1959      F1963   1.385       .  S
C1959      F1964   1.383       .  S
C1959      F1965   1.384       .  S
C1962      F1966   1.383       .  S
C1962      F1967   1.382       .  S
C1962      F1968   1.385       .  S
C1969      C1970   1.407       .  A
C1969      C1974   1.407       .  A
C1969      H1976   1.082       .  S
C1970      C1971   1.415       .  A
C1971      C1972   1.409       .  A
C1971      C1978   1.520       .  S
C1972      C1973   1.413       .  A
C1972      H1977   1.082       .  S
C1973      C1974   1.420       .  A
C1974      C1975   1.520       .  S
C1975      F1979   1.385       .  S
C1975      F1980   1.384       .  S
C1975      F1981   1.383       .  S
C1978      F1982   1.383       .  S
C1978      F1983   1.384       .  S
C1978      F1984   1.385       .  S
C1985      C1986   1.413       .  A
C1985      C1990   1.408       .  A
C1985      H1992   1.081       .  S
C1986      C1987   1.419       .  A
C1987      C1988   1.408       .  A
C1987      C1994   1.520       .  S
C1988      C1989   1.410       .  A
C1988      H1993   1.082       .  S
C1989      C1990   1.416       .  A
C1990      C1991   1.520       .  S
C1991      F1995   1.382       .  S
C1991      F1996   1.380       .  S
C1991      F1997   1.385       .  S
C1994      F1998   1.385       .  S
C1994      F1999   1.383       .  S
C1994      F2000   1.383       .  S
C2001      C2002   1.410   1_545  A
C2001      C2006   1.406       .  A
C2001      H2008   1.082       .  S
C2002      C2003   1.419       .  A
C2003      C2004   1.405       .  A
C2003      C2010   1.519       .  S
C2004      C2005   1.404   1_565  A
C2005      C2006   1.414       .  A
C2006      C2007   1.520       .  S
C2007      F2011   1.385       .  S
C2007      F2012   1.384       .  S
C2007      F2013   1.382       .  S
C2010      F2014   1.383       .  S
C2010      F2015   1.382       .  S
C2017      C2018   1.409       .  A
C2017      C2022   1.408   1_556  A
C2017      H2024   1.082       .  S
C2019      C2020   1.403   1_556  A
C2019      C2026   1.520       .  S
C2020      H2025   1.082       .  S
C2021      C2022   1.415       .  A
C2022      C2023   1.519       .  S
C2023      F2027   1.385       .  S
C2023      F2028   1.383       .  S
C2023      F2029   1.383       .  S
C2026      F2030   1.383       .  S
C2026      F2031   1.383       .  S
C2026      F2032   1.385       .  S
C2033      C2034   1.408       .  A
C2033      C2038   1.407       .  A
C2033      H2040   1.082       .  S
C2034      C2035   1.414       .  A
C2035      C2036   1.406       .  A
C2035      C2042   1.520       .  S
C2036      C2037   1.412       .  A
C2036      H2041   1.082       .  S
C2037      C2038   1.419       .  A
C2038      C2039   1.520       .  S
C2039      F2043   1.385       .  S
C2039      F2044   1.383       .  S
C2039      F2045   1.384       .  S
C2042      F2046   1.384       .  S
C2042      F2047   1.383       .  S
C2042      F2048   1.384       .  S
C2049      C2050   1.401       .  A
C2049      C2054   1.407       .  A
C2049      H2056   1.086       .  S
C2050      C2051   1.427       .  A
C2051      C2052   1.410       .  A
C2051      C2058   1.521       .  S
C2052      C2053   1.400       .  A
C2052      H2057   1.086       .  S
C2053      C2054   1.422       .  A
C2054      C2055   1.521       .  S
C2055      F2059   1.385       .  S
C2055      F2060   1.382       .  S
C2055      F2061   1.383       .  S
C2058      F2062   1.383       .  S
C2058      F2063   1.383       .  S
C2058      F2064   1.385       .  S
C2065      C2066   1.406       .  A
C2065      C2070   1.407       .  A
C2065      H2072   1.083       .  S
C2066      C2067   1.413       .  A
C2067      C2068   1.406       .  A
C2067      C2074   1.518       .  S
C2068      C2069   1.410       .  A
C2068      H2073   1.082       .  S
C2069      C2070   1.418       .  A
C2070      C2071   1.520       .  S
C2071      F2075   1.385       .  S
C2071      F2076   1.383       .  S
C2071      F2077   1.383       .  S
C2074      F2078   1.382       .  S
C2074      F2079   1.382       .  S
C2074      F2080   1.385       .  S
C2081      C2082   1.408       .  A
C2081      C2086   1.408       .  A
C2081      H2088   1.082       .  S
C2082      C2083   1.414       .  A
C2083      C2084   1.410       .  A
C2083      C2090   1.519       .  S
C2084      C2085   1.413       .  A
C2084      H2089   1.082       .  S
C2085      C2086   1.419       .  A
C2086      C2087   1.520       .  S
C2087      F2091   1.385       .  S
C2087      F2092   1.383       .  S
C2087      F2093   1.383       .  S
C2090      F2094   1.384       .  S
C2090      F2095   1.382       .  S
C2090      F2096   1.385       .  S
C2097      C2098   1.409       .  A
C2097      C2102   1.409   1_556  A
C2097      H2104   1.083       .  S
C2098      C2099   1.414       .  A
C2099      C2100   1.407   1_556  A
C2099      C2106   1.518       .  S
C2100      C2101   1.408       .  A
C2100      H2105   1.083       .  S
C2101      C2102   1.413       .  A
C2102      C2103   1.517       .  S
C2103      F2107   1.384       .  S
C2103      F2108   1.384       .  S
C2103      F2109   1.383       .  S
C2106      F2110   1.382       .  S
C2106      F2111   1.383       .  S
C2106      F2112   1.385       .  S
C2113      C2114   1.408       .  A
C2113      C2118   1.404       .  A
C2113      H2120   1.084       .  S
C2114      C2115   1.411       .  A
C2115      C2116   1.404       .  A
C2115      C2122   1.518       .  S
C2116      C2117   1.407       .  A
C2116      H2121   1.082       .  S
C2117      C2118   1.411       .  A
C2118      C2119   1.519       .  S
C2119      F2123   1.384       .  S
C2119      F2124   1.382       .  S
C2119      F2125   1.384       .  S
C2122      F2126   1.383       .  S
C2122      F2127   1.383       .  S
C2122      F2128   1.385       .  S
C2129      C2130   1.410       .  A
C2129      C2134   1.410       .  A
C2129      H2136   1.082       .  S
C2130      C2131   1.414       .  A
C2131      C2132   1.408       .  A
C2131      C2138   1.519       .  S
C2132      C2133   1.412       .  A
C2132      H2137   1.082       .  S
C2133      C2134   1.418       .  A
C2134      C2135   1.519       .  S
C2135      F2139   1.385       .  S
C2135      F2140   1.384       .  S
C2135      F2141   1.383       .  S
C2138      F2142   1.383       .  S
C2138      F2143   1.384       .  S
C2138      F2144   1.385       .  S
C2145      C2146   1.407       .  A
C2145      C2150   1.408       .  A
C2145      H2152   1.085       .  S
C2146      C2147   1.412       .  A
C2147      C2148   1.404       .  A
C2147      C2154   1.520       .  S
C2148      C2149   1.411       .  A
C2148      H2153   1.084       .  S
C2149      C2150   1.416       .  A
C2150      C2151   1.518       .  S
C2151      F2155   1.385       .  S
C2151      F2156   1.382       .  S
C2151      F2157   1.383       .  S
C2154      F2158   1.383       .  S
C2154      F2159   1.384       .  S
C2154      F2160   1.385       .  S
C2161      C2162   1.398       .  A
C2161      C2166   1.406       .  A
C2161      H2168   1.083       .  S
C2162      C2163   1.422       .  A
C2163      C2164   1.400       .  A
C2163      C2170   1.522       .  S
C2164      C2165   1.398       .  A
C2164      H2169   1.083       .  S
C2165      C2166   1.427       .  A
C2167      F2171   1.385       .  S
C2167      F2172   1.383       .  S
C2167      F2173   1.383       .  S
C2170      F2174   1.382       .  S
C2170      F2175   1.384       .  S
C2170      F2176   1.385       .  S
C2177      C2178   1.401       .  A
C2177      C2182   1.408   1_565  A
C2178      C2179   1.424       .  A
C2179      C2180   1.405       .  A
C2179      C2186   1.522       .  S
C2180      C2181   1.398       .  A
C2180      H2185   1.083       .  S
C2181      C2182   1.420   1_565  A
C2183      F2187   1.385       .  S
C2183      F2188   1.384       .  S
C2183      F2189   1.382       .  S
C2186      F2190   1.382       .  S
C2186      F2191   1.383       .  S
C2186      F2192   1.385       .  S
C2193      C2194   1.404       .  A
C2193      C2198   1.412       .  A
C2193      H2200   1.084       .  S
C2195      C2196   1.406       .  A
C2195      C2202   1.520       .  S
C2196      C2197   1.398       .  A
C2196      H2201   1.085       .  S
C2198      C2199   1.519       .  S
C2199      F2203   1.385       .  S
C2199      F2205   1.382       .  S
C2202      F2206   1.382       .  S
C2202      F2207   1.384       .  S
C2202      F2208   1.385       .  S
C2209      C2210   1.407   1_455  A
C2209      C2214   1.403       .  A
C2209      H2216   1.083       .  S
C2210      C2211   1.412       .  A
C2211      C2212   1.404       .  A
C2211      C2218   1.519       .  S
C2212      C2213   1.408       .  A
C2212      H2217   1.083       .  S
C2213      C2214   1.412   1_655  A
C2214      C2215   1.519       .  S
C2215      F2219   1.384       .  S
C2215      F2220   1.382       .  S
C2215      F2221   1.384       .  S
C2218      F2222   1.383       .  S
C2218      F2223   1.383   1_565  S
C2218      F2224   1.385       .  S
C2225      C2226   1.407       .  A
C2225      C2230   1.406       .  A
C2225      H2232   1.084       .  S
C2226      C2227   1.412       .  A
C2227      C2228   1.408       .  A
C2227      C2234   1.519       .  S
C2228      C2229   1.412       .  A
C2228      H2233   1.083       .  S
C2229      C2230   1.417       .  A
C2230      C2231   1.519       .  S
C2231      F2235   1.385       .  S
C2231      F2236   1.383       .  S
C2231      F2237   1.383       .  S
C2234      F2238   1.383       .  S
C2234      F2239   1.383       .  S
C2234      F2240   1.385       .  S
C2241      C2242   1.398       .  A
C2241      C2246   1.411       .  A
C2241      H2248   1.086       .  S
C2242      C2243   1.425       .  A
C2243      C2244   1.406       .  A
C2243      C2250   1.523       .  S
C2244      C2245   1.402       .  A
C2244      H2249   1.086       .  S
C2245      C2246   1.432       .  A
C2246      C2247   1.522       .  S
C2247      F2251   1.385       .  S
C2247      F2252   1.383       .  S
C2247      F2253   1.381       .  S
C2250      F2254   1.383       .  S
C2250      F2255   1.382       .  S
C2250      F2256   1.385       .  S
C2257      C2258   1.406       .  A
C2257      C2262   1.407       .  A
C2257      H2264   1.083       .  S
C2258      C2259   1.412       .  A
C2259      C2260   1.406       .  A
C2259      C2266   1.520       .  S
C2260      C2261   1.412       .  A
C2260      H2265   1.082       .  S
C2261      C2262   1.416       .  A
C2262      C2263   1.518       .  S
C2263      F2267   1.385       .  S
C2263      F2268   1.383       .  S
C2263      F2269   1.384       .  S
C2266      F2270   1.383       .  S
C2266      F2271   1.383       .  S
C2266      F2272   1.385       .  S
C2273      C2274   1.397       .  A
C2273      C2278   1.408       .  A
C2273      H2280   1.083       .  S
C2274      C2275   1.419       .  A
C2275      C2276   1.405       .  A
C2275      C2282   1.520       .  S
C2276      C2277   1.401       .  A
C2276      H2281   1.083       .  S
C2277      C2278   1.429       .  A
C2278      C2279   1.522       .  S
C2279      F2283   1.385       .  S
C2279      F2284   1.384       .  S
C2279      F2285   1.383       .  S
C2282      F2286   1.382       .  S
C2282      F2287   1.384       .  S
C2282      F2288   1.385       .  S
C2289      C2290   1.400       .  A
C2289      C2294   1.407       .  A
C2289      H2296   1.083       .  S
C2290      C2291   1.421       .  A
C2291      C2292   1.402       .  A
C2291      C2298   1.520       .  S
C2292      C2293   1.398       .  A
C2292      H2297   1.084       .  S
C2293      C2294   1.420       .  A
C2294      C2295   1.519       .  S
C2295      F2299   1.385       .  S
C2295      F2300   1.383       .  S
C2295      F2301   1.382       .  S
C2298      F2302   1.382       .  S
C2298      F2303   1.382       .  S
C2298      F2304   1.385       .  S
C2305      C2306   1.412   1_455  A
C2305      C2310   1.408       .  A
C2305      H2312   1.081       .  S
C2306      C2307   1.416       .  A
C2307      C2308   1.405       .  A
C2307      C2314   1.519       .  S
C2308      C2309   1.403       .  A
C2308      H2313   1.072       .  S
C2309      C2310   1.409   1_655  A
C2310      C2311   1.518       .  S
C2311      F2315   1.384       .  S
C2311      F2316   1.384       .  S
C2311      F2317   1.383       .  S
C2314      F2318   1.383       .  S
C2314      F2320   1.385       .  S
C2321      C2322   1.415       .  A
C2321      C2326   1.405       .  A
C2321      H2328   1.082       .  S
C2322      C2323   1.418   1_565  A
C2323      C2324   1.404   1_545  A
C2324      C2325   1.407       .  A
C2324      H2329   1.083   1_665  S
C2325      C2326   1.409       .  A
C2326      C2327   1.519       .  S
C2327      F2331   1.385       .  S
C2327      F2332   1.383       .  S
C2327      F2333   1.384       .  S
C2330      F2335   1.383       .  S
C2330      F2336   1.385       .  S
C2337      C2338   1.409       .  A
C2337      C2342   1.406       .  A
C2338      C2339   1.414   1_655  A
C2339      C2340   1.402       .  A
C2339      C2346   1.520       .  S
C2340      C2341   1.409   1_455  A
C2340      H2345   1.083       .  S
C2341      C2342   1.416       .  A
C2343      F2347   1.385       .  S
C2343      F2348   1.383       .  S
C2343      F2349   1.383       .  S
C2346      F2350   1.383       .  S
C2346      F2351   1.383       .  S
C2346      F2352   1.385       .  S
C2353      C2354   1.413       .  A
C2353      C2358   1.402       .  A
C2353      H2360   1.081       .  S
C2354      C2355   1.418       .  A
C2355      C2356   1.407       .  A
C2355      C2362   1.520       .  S
C2356      C2357   1.409       .  A
C2356      H2361   1.082       .  S
C2357      C2358   1.414       .  A
C2358      C2359   1.522       .  S
C2359      F2363   1.385       .  S
C2359      F2364   1.384       .  S
C2359      F2365   1.383       .  S
C2362      F2366   1.383       .  S
C2362      F2367   1.383       .  S
C2362      F2368   1.385       .  S
C2369      C2370   1.408       .  A
C2369      C2374   1.409       .  A
C2369      H2376   1.085       .  S
C2370      C2371   1.416       .  A
C2371      C2372   1.410       .  A
C2371      C2378   1.520       .  S
C2372      C2373   1.413       .  A
C2372      H2377   1.085       .  S
C2373      C2374   1.419       .  A
C2374      C2375   1.520       .  S
C2375      F2379   1.385       .  S
C2375      F2380   1.383       .  S
C2375      F2381   1.383       .  S
C2378      F2382   1.383       .  S
C2378      F2383   1.384       .  S
C2378      F2384   1.385       .  S
C2385      C2386   1.404       .  A
C2385      C2390   1.407       .  A
C2385      H2392   1.084       .  S
C2386      C2387   1.407       .  A
C2387      C2388   1.407       .  A
C2387      C2394   1.518       .  S
C2388      C2389   1.414       .  A
C2388      H2393   1.083       .  S
C2389      C2390   1.418       .  A
C2390      C2391   1.519       .  S
C2391      F2395   1.385       .  S
C2391      F2396   1.384       .  S
C2391      F2397   1.383       .  S
C2394      F2398   1.383       .  S
C2394      F2399   1.384       .  S
C2394      F2400   1.385       .  S
C2401      C2402   1.405       .  A
C2401      C2406   1.407       .  A
C2401      H2408   1.083       .  S
C2402      C2403   1.411       .  A
C2403      C2404   1.410       .  A
C2403      C2410   1.517       .  S
C2404      C2405   1.411       .  A
C2404      H2409   1.082       .  S
C2405      C2406   1.419       .  A
C2406      C2407   1.520       .  S
C2407      F2411   1.385       .  S
C2407      F2412   1.383       .  S
C2407      F2413   1.382       .  S
C2410      F2414   1.383       .  S
C2410      F2415   1.383       .  S
C2410      F2416   1.384       .  S
C2417      C2418   1.409       .  A
C2417      C2422   1.404       .  A
C2417      H2424   1.081       .  S
C2418      C2419   1.413       .  A
C2419      C2420   1.405       .  A
C2419      C2426   1.519       .  S
C2420      C2421   1.410       .  A
C2420      H2425   1.081       .  S
C2421      C2422   1.414       .  A
C2422      C2423   1.520       .  S
C2423      F2427   1.385       .  S
C2423      F2428   1.382       .  S
C2423      F2429   1.384       .  S
C2426      F2430   1.383       .  S
C2426      F2431   1.383       .  S
C2426      F2432   1.384       .  S
C2433      C2434   1.406       .  A
C2433      C2438   1.406       .  A
C2433      H2440   1.081       .  S
C2434      C2435   1.410       .  A
C2435      C2436   1.405       .  A
C2435      C2442   1.520       .  S
C2436      C2437   1.416       .  A
C2436      H2441   1.082       .  S
C2437      C2438   1.419       .  A
C2438      C2439   1.520       .  S
C2439      F2443   1.385       .  S
C2439      F2444   1.384       .  S
C2439      F2445   1.383       .  S
C2442      F2446   1.383       .  S
C2442      F2447   1.384       .  S
C2442      F2448   1.384       .  S
C2449      C2450   1.409       .  A
C2449      C2454   1.409       .  A
C2449      H2456   1.080       .  S
C2450      C2451   1.415       .  A
C2451      C2452   1.403       .  A
C2451      C2458   1.519       .  S
C2452      C2453   1.409       .  A
C2452      H2457   1.082       .  S
C2453      C2454   1.418       .  A
C2454      C2455   1.519       .  S
C2455      F2459   1.385       .  S
C2455      F2460   1.383       .  S
C2455      F2461   1.384       .  S
C2458      F2462   1.380       .  S
C2458      F2463   1.383       .  S
C2458      F2464   1.385       .  S
C2465      C2466   1.406       .  A
C2465      C2470   1.407       .  A
C2465      H2472   1.083       .  S
C2466      C2467   1.409       .  A
C2467      C2468   1.401       .  A
C2467      C2474   1.520       .  S
C2468      C2469   1.413       .  A
C2468      H2473   1.082       .  S
C2469      C2470   1.419       .  A
C2470      C2471   1.520       .  S
C2471      F2475   1.385   1_565  S
C2471      F2476   1.383   1_565  S
C2471      F2477   1.383       .  S
C2474      F2478   1.384       .  S
C2474      F2479   1.382       .  S
C2474      F2480   1.385       .  S
C2481      C2482   1.414       .  A
C2481      C2486   1.409       .  A
C2481      H2488   1.081       .  S
C2482      C2483   1.420       .  A
C2483      C2484   1.411       .  A
C2483      C2490   1.520       .  S
C2484      C2485   1.412       .  A
C2484      H2489   1.082       .  S
C2485      C2486   1.416       .  A
C2486      C2487   1.520       .  S
C2487      F2491   1.385       .  S
C2487      F2492   1.384       .  S
C2487      F2493   1.383       .  S
C2490      F2494   1.383       .  S
C2490      F2495   1.383       .  S
C2490      F2496   1.385       .  S
C2497      C2498   1.405       .  A
C2497      C2502   1.401       .  A
C2497      H2504   1.084       .  S
C2498      C2499   1.415       .  A
C2499      C2500   1.404       .  A
C2499      C2506   1.517       .  S
C2500      C2501   1.406       .  A
C2500      H2505   1.084       .  S
C2501      C2502   1.415       .  A
C2502      C2503   1.517       .  S
C2503      F2507   1.385       .  S
C2503      F2508   1.383       .  S
C2503      F2509   1.380       .  S
C2506      F2510   1.380       .  S
C2506      F2511   1.383       .  S
C2506      F2512   1.385       .  S
C2513      C2514   1.406   1_545  A
C2513      C2518   1.399       .  A
C2513      H2520   1.083       .  S
C2514      C2515   1.418       .  A
C2515      C2516   1.407       .  A
C2515      C2522   1.519       .  S
C2516      C2517   1.403   1_565  A
C2516      H2521   1.084       .  S
C2517      C2518   1.409       .  A
C2518      C2519   1.517       .  S
C2519      F2523   1.384       .  S
C2519      F2525   1.382       .  S
C2522      F2526   1.383       .  S
C2522      F2527   1.382       .  S
C2522      F2528   1.385       .  S
C2529      C2534   1.409       .  A
C2529      H2536   1.081       .  S
C2530      C2531   1.418       .  A
C2531      C2532   1.406       .  A
C2531      C2538   1.521       .  S
C2532      C2533   1.411       .  A
C2532      H2537   1.082       .  S
C2534      C2535   1.520       .  S
C2535      F2539   1.385       .  S
C2535      F2540   1.383       .  S
C2535      F2541   1.383       .  S
C2538      F2542   1.384       .  S
C2538      F2543   1.383       .  S
C2538      F2544   1.385       .  S
C2545      C2546   1.409       .  A
C2545      C2550   1.408       .  A
C2545      H2552   1.082       .  S
C2546      C2547   1.416       .  A
C2547      C2548   1.412       .  A
C2547      C2554   1.519       .  S
C2548      C2549   1.414       .  A
C2548      H2553   1.082       .  S
C2549      C2550   1.421       .  A
C2550      C2551   1.522       .  S
C2551      F2555   1.385       .  S
C2551      F2556   1.384       .  S
C2551      F2557   1.383       .  S
C2554      F2558   1.383   1_565  S
C2554      F2559   1.384       .  S
C2554      F2560   1.385       .  S
C2561      C2562   1.415       .  A
C2561      C2566   1.405       .  A
C2561      H2568   1.080       .  S
C2562      C2563   1.420       .  A
C2563      C2564   1.409       .  A
C2563      C2570   1.521       .  S
C2564      C2565   1.409       .  A
C2564      H2569   1.081       .  S
C2565      C2566   1.412       .  A
C2566      C2567   1.520       .  S
C2567      F2571   1.385       .  S
C2567      F2572   1.384       .  S
C2567      F2573   1.383       .  S
C2570      F2574   1.384   1_565  S
C2570      F2575   1.383       .  S
C2570      F2576   1.385   1_565  S
C2577      C2578   1.414       .  A
C2577      C2582   1.409       .  A
C2577      H2584   1.081       .  S
C2578      C2579   1.418       .  A
C2579      C2580   1.404       .  A
C2579      C2586   1.521       .  S
C2580      C2581   1.408       .  A
C2580      H2585   1.081       .  S
C2581      C2582   1.414       .  A
C2582      C2583   1.519       .  S
C2583      F2587   1.385   1_565  S
C2583      F2588   1.383       .  S
C2583      F2589   1.383       .  S
C2586      F2590   1.384       .  S
C2586      F2591   1.382       .  S
C2586      F2592   1.385       .  S
C2593      C2594   1.408   1_545  A
C2593      C2598   1.409       .  A
C2593      H2600   1.083       .  S
C2594      C2595   1.412       .  A
C2595      C2596   1.404       .  A
C2595      C2602   1.519       .  S
C2596      C2597   1.410   1_565  A
C2596      H2601   1.083       .  S
C2597      C2598   1.417       .  A
C2599      F2603   1.384       .  S
C2599      F2604   1.383       .  S
C2599      F2605   1.382       .  S
C2602      F2606   1.384       .  S
C2602      F2607   1.383       .  S
C2602      F2608   1.385       .  S
C2609      C2610   1.408       .  A
C2609      C2614   1.403       .  A
C2609      H2616   1.082       .  S
C2610      C2611   1.413       .  A
C2611      C2612   1.402       .  A
C2611      C2618   1.519       .  S
C2612      C2613   1.407       .  A
C2612      H2617   1.082       .  S
C2613      C2614   1.412       .  A
C2614      C2615   1.520       .  S
C2615      F2620   1.383       .  S
C2615      F2621   1.384       .  S
C2618      F2622   1.383       .  S
C2618      F2623   1.383   1_565  S
C2618      F2624   1.385   1_565  S
C2625      C2626   1.405       .  A
C2625      C2630   1.405       .  A
C2625      H2632   1.085       .  S
C2626      C2627   1.409       .  A
C2627      C2628   1.406       .  A
C2627      C2634   1.518       .  S
C2628      C2629   1.414       .  A
C2628      H2633   1.083       .  S
C2629      C2630   1.418       .  A
C2630      C2631   1.520       .  S
C2631      F2635   1.385       .  S
C2631      F2636   1.383       .  S
C2631      F2637   1.383       .  S
C2634      F2638   1.384       .  S
C2634      F2639   1.383       .  S
C2634      F2640   1.385       .  S
C2641      C2642   1.410       .  A
C2641      C2646   1.407       .  A
C2641      H2648   1.082       .  S
C2642      C2643   1.412       .  A
C2643      C2644   1.410       .  A
C2643      C2650   1.518       .  S
C2644      C2645   1.417       .  A
C2644      H2649   1.082       .  S
C2645      C2646   1.419       .  A
C2646      C2647   1.521       .  S
C2647      F2651   1.385       .  S
C2647      F2652   1.384       .  S
C2647      F2653   1.382       .  S
C2650      F2654   1.383       .  S
C2650      F2655   1.383       .  S
C2650      F2656   1.385       .  S
C2657      C2658   1.407       .  A
C2657      C2662   1.407       .  A
C2657      H2664   1.082       .  S
C2658      C2659   1.413       .  A
C2659      C2660   1.406       .  A
C2659      C2666   1.515       .  S
C2660      C2661   1.406       .  A
C2660      H2665   1.083       .  S
C2661      C2662   1.413       .  A
C2662      C2663   1.517       .  S
C2663      F2667   1.385       .  S
C2663      F2668   1.383       .  S
C2663      F2669   1.382       .  S
C2666      F2670   1.382       .  S
C2666      F2671   1.381       .  S
C2666      F2672   1.385       .  S
C2673      C2674   1.414       .  A
C2673      C2678   1.406       .  A
C2673      H2680   1.082       .  S
C2674      C2675   1.415       .  A
C2675      C2676   1.403       .  A
C2675      C2682   1.520       .  S
C2676      C2677   1.411       .  A
C2676      H2681   1.083       .  S
C2677      C2678   1.413       .  A
C2678      C2679   1.518       .  S
C2679      F2683   1.385       .  S
C2679      F2684   1.381       .  S
C2679      F2685   1.383       .  S
C2682      F2686   1.384       .  S
C2682      F2687   1.383       .  S
C2682      F2688   1.385       .  S
C2689      C2690   1.400       .  A
C2689      C2694   1.407       .  A
C2689      H2696   1.083       .  S
C2690      C2691   1.425       .  A
C2691      C2692   1.405       .  A
C2691      C2698   1.522       .  S
C2692      C2693   1.397       .  A
C2692      H2697   1.084       .  S
C2693      C2694   1.420       .  A
C2694      C2695   1.520       .  S
C2695      F2699   1.385       .  S
C2695      F2700   1.382       .  S
C2695      F2701   1.383       .  S
C2698      F2702   1.384       .  S
C2698      F2703   1.382       .  S
C2698      F2704   1.385       .  S
C2705      C2706   1.409       .  A
C2705      C2710   1.402       .  A
C2705      H2712   1.084       .  S
C2706      C2707   1.416   1_565  A
C2707      C2708   1.408   1_545  A
C2708      C2709   1.405       .  A
C2708      H2713   1.085   1_565  S
C2709      C2710   1.407       .  A
C2710      C2711   1.518       .  S
C2711      F2715   1.384       .  S
C2711      F2716   1.383       .  S
C2711      F2717   1.383       .  S
C2714      F2718   1.383       .  S
C2714      F2719   1.383       .  S
C2714      F2720   1.385       .  S
C2721      C2722   1.411       .  A
C2721      C2726   1.414       .  A
C2721      H2728   1.083       .  S
C2722      C2723   1.417       .  A
C2723      C2724   1.411       .  A
C2724      C2725   1.414       .  A
C2724      H2729   1.082       .  S
C2725      C2726   1.421       .  A
C2726      C2727   1.520       .  S
C2727      F2731   1.385       .  S
C2727      F2732   1.384       .  S
C2727      F2733   1.383       .  S
C2730      F2734   1.384       .  S
C2730      F2735   1.383   1_545  S
C2730      F2736   1.384       .  S
C2737      C2738   1.399       .  A
C2737      C2742   1.401       .  A
C2737      H2744   1.083       .  S
C2738      C2739   1.427       .  A
C2739      C2740   1.400       .  A
C2739      C2746   1.524       .  S
C2740      C2741   1.397       .  A
C2740      H2745   1.083       .  S
C2741      C2742   1.426       .  A
C2743      F2747   1.385       .  S
C2743      F2748   1.383       .  S
C2743      F2749   1.383       .  S
C2746      F2750   1.383       .  S
C2746      F2751   1.383       .  S
C2746      F2752   1.385       .  S
C2753      C2754   1.407       .  A
C2753      C2758   1.408       .  A
C2753      H2760   1.083       .  S
C2754      C2755   1.412       .  A
C2755      C2756   1.404       .  A
C2755      C2762   1.521   1_655  S
C2756      C2757   1.415       .  A
C2756      H2761   1.082       .  S
C2757      C2758   1.420       .  A
C2758      C2759   1.519       .  S
C2759      F2763   1.385   1_565  S
C2759      F2764   1.383   1_565  S
C2759      F2765   1.383       .  S
C2762      F2766   1.384       .  S
C2762      F2767   1.383   1_455  S
C2762      F2768   1.385       .  S
C2769      C2770   1.410       .  A
C2769      C2774   1.411       .  A
C2769      H2776   1.082       .  S
C2770      C2771   1.416       .  A
C2771      C2772   1.407       .  A
C2771      C2778   1.521       .  S
C2772      C2773   1.413       .  A
C2772      H2777   1.082       .  S
C2773      C2774   1.418       .  A
C2774      C2775   1.518       .  S
C2775      F2779   1.384       .  S
C2775      F2780   1.383       .  S
C2775      F2781   1.383       .  S
C2778      F2782   1.384       .  S
C2778      F2783   1.383       .  S
C2778      F2784   1.385       .  S
C2785      C2786   1.410       .  A
C2785      C2790   1.405       .  A
C2785      H2792   1.084       .  S
C2786      C2787   1.416   1_655  A
C2787      C2788   1.404       .  A
C2787      C2794   1.518       .  S
C2788      C2789   1.402   1_455  A
C2788      H2793   1.084       .  S
C2789      C2790   1.408       .  A
C2790      C2791   1.518       .  S
C2791      F2795   1.385       .  S
C2791      F2796   1.383       .  S
C2791      F2797   1.384       .  S
C2794      F2798   1.383       .  S
C2794      F2799   1.383       .  S
C2794      F2800   1.385       .  S
C2801      C2802   1.410       .  A
C2801      C2806   1.406       .  A
C2801      H2808   1.083       .  S
C2802      C2803   1.417       .  A
C2803      C2804   1.410       .  A
C2803      C2810   1.519       .  S
C2804      C2805   1.408       .  A
C2804      H2809   1.082       .  S
C2805      C2806   1.414       .  A
C2806      C2807   1.516       .  S
C2807      F2811   1.385       .  S
C2807      F2812   1.380       .  S
C2807      F2813   1.382       .  S
C2810      F2814   1.383       .  S
C2810      F2815   1.384       .  S
C2810      F2816   1.385       .  S
C2817      C2818   1.400   1_455  A
C2817      C2822   1.406       .  A
C2817      H2824   1.083       .  S
C2818      C2819   1.421       .  A
C2819      C2820   1.400       .  A
C2819      C2826   1.523       .  S
C2820      C2821   1.399       .  A
C2820      H2825   1.082       .  S
C2821      C2822   1.422   1_655  A
C2822      C2823   1.520       .  S
C2823      F2827   1.385       .  S
C2823      F2828   1.384       .  S
C2823      F2829   1.383       .  S
C2826      F2830   1.382       .  S
C2826      F2831   1.383       .  S
C2826      F2832   1.385       .  S
C2833      C2834   1.415       .  A
C2833      C2838   1.408       .  A
C2833      H2840   1.081       .  S
C2834      C2835   1.421       .  A
C2835      C2836   1.407       .  A
C2835      C2842   1.521       .  S
C2836      C2837   1.407       .  A
C2836      H2841   1.083       .  S
C2837      C2838   1.413       .  A
C2838      C2839   1.519       .  S
C2842      F2846   1.383       .  S
C2842      F2847   1.383       .  S
C2842      F2848   1.385       .  S
C2849      C2850   1.398       .  A
C2849      C2854   1.405       .  A
C2849      H2856   1.084       .  S
C2850      C2851   1.416       .  A
C2851      C2852   1.408       .  A
C2851      C2858   1.518       .  S
C2852      C2853   1.402       .  A
C2852      H2857   1.083       .  S
C2853      C2854   1.420       .  A
C2854      C2855   1.520       .  S
C2855      F2859   1.385       .  S
C2855      F2860   1.383       .  S
C2855      F2861   1.382       .  S
C2858      F2862   1.382       .  S
C2858      F2863   1.384       .  S
C2858      F2864   1.385       .  S
C2865      C2866   1.409       .  A
C2865      C2870   1.411       .  A
C2866      C2867   1.414       .  A
C2867      C2868   1.408       .  A
C2867      C2874   1.519       .  S
C2868      C2869   1.411       .  A
C2868      H2873   1.081       .  S
C2869      C2870   1.418       .  A
C2871      F2875   1.385       .  S
C2874      F2878   1.383       .  S
C2874      F2879   1.383       .  S
C2874      F2880   1.385       .  S
C2881      C2882   1.413       .  A
C2881      C2886   1.410       .  A
C2881      H2888   1.082       .  S
C2883      C2884   1.408       .  A
C2883      C2890   1.519       .  S
C2884      H2889   1.084       .  S
C2885      C2886   1.415       .  A
C2886      C2887   1.518       .  S
C2887      F2891   1.385       .  S
C2887      F2892   1.383       .  S
C2887      F2893   1.383       .  S
C2890      F2894   1.384       .  S
C2890      F2895   1.383       .  S
C2890      F2896   1.385       .  S
C2897      C2898   1.399       .  A
C2897      C2902   1.410       .  A
C2897      H2904   1.082       .  S
C2899      C2900   1.399       .  A
C2899      C2906   1.523       .  S
C2900      H2905   1.083       .  S
C2901      C2902   1.422       .  A
C2902      C2903   1.519       .  S
C2903      F2907   1.385       .  S
C2903      F2908   1.381       .  S
C2903      F2909   1.382       .  S
C2906      F2910   1.382       .  S
C2906      F2911   1.382       .  S
C2906      F2912   1.385       .  S
C2913      C2914   1.406       .  A
C2913      C2918   1.408       .  A
C2913      H2920   1.083       .  S
C2914      C2915   1.410       .  A
C2915      C2916   1.405       .  A
C2915      C2922   1.518       .  S
C2916      C2917   1.408       .  A
C2916      H2921   1.083       .  S
C2917      C2918   1.415       .  A
C2918      C2919   1.517       .  S
C2919      F2923   1.384       .  S
C2919      F2924   1.383       .  S
C2919      F2925   1.382       .  S
C2922      F2926   1.383       .  S
C2922      F2927   1.383       .  S
C2922      F2928   1.385       .  S
C2929      C2930   1.409       .  A
C2929      C2934   1.405       .  A
C2929      H2936   1.082       .  S
C2931      C2932   1.408       .  A
C2931      C2938   1.518       .  S
C2932      H2937   1.082       .  S
C2933      C2934   1.414       .  A
C2934      C2935   1.519   1_565  S
C2935      F2939   1.385       .  S
C2935      F2940   1.384   1_545  S
C2935      F2941   1.383       .  S
C2938      F2942   1.382       .  S
C2938      F2943   1.384       .  S
C2938      F2944   1.384       .  S
