geometry optimzed in LAMMPS
_audit_creation_date              2020-12-01 
_audit_creation_method            'lammps2cif' 
_symmetry_space_group_name_H-M    'P1' 
_symmetry_Int_Tables_number       1 
_symmetry_cell_setting            triclinic 
loop_ 
_symmetry_equiv_pos_as_xyz 
  x,y,z 
_cell_length_a                    52.77933345 
_cell_length_b                    25.845625311639473 
_cell_length_c                    28.96123293753338 
_cell_angle_alpha                 90.2560777216101 
_cell_angle_beta                  115.5763293771185 
_cell_angle_gamma                 89.31063906398968 
loop_ 
_atom_site_label 
_atom_site_type_symbol 
_atom_site_fract_x 
_atom_site_fract_y 
_atom_site_fract_z 
_atom_site_charge 
O1          O  0.07686827  0.32805175  0.28120612    -0.81400
C2          C  0.13022911  0.32602691  0.48912655     0.98000
O3          O  0.12276355  0.29472646  0.45224212    -0.70500
O4          O  0.09134456  0.25940152  0.35869369    -0.74100
Al5        Al  0.12210075  0.30904740  0.38821431     1.49000
C6          C  0.06537697  0.26302411  0.34810609     0.93300
O7          O  0.04851861  0.40605542  0.36451799    -0.80300
O8          O  0.09213454  0.47069825  0.37178491    -0.73800
Al9        Al  0.06631359  0.36660399  0.32810555     1.90100
O10         O  0.08298275  0.41224053  0.44155745    -0.72900
O11         O  0.14227325  0.42619512  0.40598343    -0.72800
O12         O  0.13314655  0.37383898  0.48240906    -0.78400
O13         O  0.15797801  0.34660938  0.42024787    -0.76600
O14         O  0.10000461  0.36404077  0.37955103    -1.12800
O15         O  0.12250355  0.31901830  0.32402937    -0.72000
C16         C  0.10049592  0.31583145  0.28238469     0.98800
C17         C  0.05755971  0.41800187  0.41150990     0.95200
Al18       Al  0.11206768  0.41663209  0.42203896     1.55600
O19         O  0.05509119  0.30671245  0.35015509    -0.76600
C20         C  0.16258601  0.39485969  0.42102217     0.99300
C21         C  0.07834245  0.46923810  0.32351341     0.94200
O22         O  0.07457898  0.42644820  0.30086584    -0.81900
O23         O  0.07805901  0.04631671  0.79391074    -0.83400
C24         C  0.11777068  0.15678029  0.97860683     0.98000
O25         O  0.12308359  0.10927258  0.97509421    -0.70500
O26         O  0.07400911  0.07053148  0.92547848    -0.74100
Al27       Al  0.10647680  0.06400347  0.91598230     1.49000
C28         C  0.05037458  0.05832235  0.89161678     0.93300
O29         O  0.04735394  0.16492816  0.82587873    -0.80300
O30         O  0.12153008  0.16119503  0.82308699    -0.73800
Al31       Al  0.06433131  0.10630878  0.81283706     1.90100
O32         O  0.08241297  0.21737215  0.84348174    -0.72900
O33         O  0.15187093  0.13656197  0.92026265    -0.72800
O34         O  0.11023932  0.18605922  0.94030133    -0.78400
O35         O  0.14046297  0.05428375  0.91110818    -0.76600
O36         O  0.09537225  0.11375811  0.86979185    -1.12800
O37         O  0.09087362  0.00710455  0.86700196    -0.72000
C38         C  0.08058855  0.00512345  0.81837376     0.98800
C39         C  0.05605401  0.20967524  0.82526388     0.95200
Al40       Al  0.11509847  0.17096657  0.88119234     1.55600
O41         O  0.04420256  0.06575544  0.84447160    -0.76600
C42         C  0.15890107  0.08879960  0.92425719     0.99300
C43         C  0.10207576  0.16332217  0.77859005     0.94200
O44         O  0.07793268  0.14575593  0.76972499    -0.81900
O45         O  0.42789853  0.55312174  0.69299399    -0.81400
C46         C  0.37995653  0.67518034  0.51299632     0.98000
O47         O  0.37760173  0.62634755  0.51444271    -0.70500
O48         O  0.42822166  0.59002602  0.56215448    -0.74100
Al49       Al  0.39657241  0.57826883  0.57163126     1.49000
C50         C  0.45309881  0.58422857  0.59503399     0.93300
O51         O  0.45107533  0.68128616  0.66723634    -0.80300
O52         O  0.37898840  0.66401486  0.67160552    -0.73800
Al53       Al  0.43768880  0.61821429  0.67694011     1.90100
O54         O  0.41349305  0.72917085  0.64819269    -0.72900
O55         O  0.34809079  0.64117983  0.57424715    -0.72800
O56         O  0.38575775  0.70097337  0.55291913    -0.78400
O57         O  0.36382890  0.56168468  0.57712452    -0.76600
O58         O  0.40587112  0.62533652  0.62057662    -1.12800
O59         O  0.41467723  0.52011168  0.61670885    -0.72000
C60         C  0.42551123  0.51457344  0.66495265     0.98800
C61         C  0.43976187  0.72512019  0.66139767     0.95200
Al62       Al  0.38329173  0.67946913  0.61243398     1.55600
O63         O  0.45913330  0.58757344  0.64246950    -0.76600
C64         C  0.34380137  0.59263197  0.56862886     0.99300
C65         C  0.39829193  0.65939994  0.71604165     0.94200
O66         O  0.42305509  0.64774303  0.72248591    -0.81900
O67         O  0.42949742  0.84282879  0.22017784    -0.81400
C68         C  0.37805215  0.82785790  0.01048849     0.98000
O69         O  0.38443947  0.80096502  0.04997556    -0.70500
O70         O  0.41320512  0.76707039  0.14367107    -0.74100
Al71       Al  0.38510834  0.82180087  0.11225518     1.49000
C72         C  0.43912862  0.76511153  0.15398373     0.93300
O73         O  0.46267120  0.89935569  0.13510477    -0.80300
O74         O  0.42137683  0.97589181  0.11927395    -0.73800
Al75       Al  0.44259147  0.87151529  0.17211563     1.90100
O76         O  0.42977710  0.90497603  0.05627204    -0.72900
O77         O  0.36919317  0.94249465  0.08341440    -0.72800
O78         O  0.37755047  0.87694209  0.01367124    -0.78400
O79         O  0.35156343  0.86537398  0.07948472    -0.76600
O80         O  0.40928130  0.87160308  0.11901639    -1.12800
O81         O  0.38408354  0.83747897  0.17487649    -0.72000
C82         C  0.40525357  0.83454375  0.21761362     0.98800
C83         C  0.45525861  0.90411052  0.08739369     0.95200
Al84       Al  0.40004272  0.92118453  0.07204148     1.55600
O85         O  0.45225626  0.80591874  0.15619294    -0.76600
C86         C  0.34874125  0.91432700  0.07702266     0.99300
C87         C  0.43325426  0.97803441  0.16783729     0.94200
O88         O  0.43674750  0.93735432  0.19366231    -0.81900
C89         C  0.36056733  0.70363695  0.79609599    -0.11400
C90         C  0.38338254  0.72029582  0.84031552     0.11200
C91         C  0.41103313  0.70722411  0.84784457    -0.03200
C92         C  0.41500234  0.68428298  0.80732239    -0.06000
C93         C  0.39221329  0.67253716  0.76047751    -0.16700
C94         C  0.36437371  0.67880771  0.75620071     0.02200
C95         C  0.37758757  0.74964665  0.87893673     0.12100
C96         C  0.43645219  0.72088814  0.89678114     0.62700
H97         H  0.43616744  0.67820376  0.81119230     0.12200
C98         C  0.33855996  0.65970278  0.71032244     0.54900
H99         H  0.33958098  0.71160687  0.79249991     0.07900
C100        C  0.37647912  0.80431609  0.87944501    -0.05900
C101        C  0.37521448  0.82933996  0.92187473    -0.06600
C102        C  0.37310406  0.80101013  0.96150291    -0.16200
C103        C  0.36903384  0.74643739  0.95529355    -0.01800
C104        C  0.37248884  0.72166450  0.91510137    -0.09300
C105        C  0.37557461  0.83549390  0.83441452     0.65000
H106        H  0.37658299  0.87106284  0.92486435     0.10400
C107        C  0.36059892  0.71369129  0.98976451     0.63300
H108        H  0.37171943  0.67989522  0.91207853     0.07800
F109        F  0.33215122  0.69245102  0.66905899    -0.19700
F110        F  0.31530897  0.65807786  0.72068687    -0.15900
F111        F  0.34335572  0.61005543  0.69754657    -0.19400
F112        F  0.43236847  0.70750720  0.93924363    -0.22800
F113        F  0.44088161  0.77334094  0.89730010    -0.24300
F114        F  0.46044636  0.69535548  0.90035986    -0.18300
F115        F  0.34943190  0.66693222  0.96695280    -0.20700
F116        F  0.34018134  0.73928862  0.99936196    -0.21900
F117        F  0.38375103  0.70315790  0.03534023    -0.19100
F118        F  0.37535096  0.88818932  0.84289934    -0.19200
F119        F  0.35140402  0.82351711  0.79127937    -0.23000
F120        F  0.39856327  0.82399120  0.82506442    -0.24600
C121        C  0.41583569  0.77695058  0.34705541    -0.11400
C122        C  0.38787429  0.77171554  0.33921309     0.11200
C123        C  0.36602073  0.79205968  0.29434967    -0.03200
C124        C  0.37294436  0.81401197  0.25697395    -0.06000
C125        C  0.40094034  0.81727217  0.26312973    -0.16700
C126        C  0.42297500  0.79962593  0.31007809     0.02200
C127        C  0.38242178  0.74645246  0.38003824     0.12100
C128        C  0.33559403  0.79136044  0.28646125     0.62700
H129        H  0.35610515  0.82870028  0.22196770     0.12200
C130        C  0.45386911  0.80386622  0.32181598     0.54900
H131        H  0.43210923  0.76233134  0.38261701     0.07900
C132        C  0.38041981  0.69216969  0.38297840    -0.05900
C133        C  0.37719725  0.67099937  0.42489695    -0.06600
C134        C  0.37753589  0.70197010  0.46529725    -0.16200
C135        C  0.37803798  0.75705309  0.46049712    -0.01800
C136        C  0.38065365  0.77787472  0.41792165    -0.09300
C137        C  0.38303483  0.65663841  0.34325612     0.65000
H138        H  0.37574585  0.62960260  0.42750246     0.10400
C139        C  0.37584751  0.79467765  0.49927189     0.63300
H140        H  0.38220827  0.81934060  0.41443281     0.07800
F141        F  0.47127106  0.78620621  0.37049184    -0.19700
F142        F  0.46039610  0.85500631  0.31899109    -0.15900
F143        F  0.45970920  0.77469042  0.28745317    -0.19400
F144        F  0.33260958  0.82192874  0.32311549    -0.22800
F145        F  0.32759045  0.74156653  0.29065028    -0.24300
F146        F  0.31740777  0.81010603  0.23871572    -0.18300
F147        F  0.40027715  0.79305121  0.54432388    -0.20700
F148        F  0.35310742  0.78227508  0.50876162    -0.21900
F149        F  0.37189862  0.84524980  0.48164010    -0.19100
F150        F  0.37898360  0.60534733  0.35158991    -0.19200
F151        F  0.40954477  0.66097077  0.34515778    -0.23000
F152        F  0.36331278  0.66986391  0.29474553    -0.24600
C153        C  0.29123108  0.01271062  0.06000582    -0.11400
C154        C  0.26883190  0.99264559  0.01687185     0.11200
C155        C  0.27221319  0.94502374  0.99568278    -0.03200
C156        C  0.29823375  0.91880300  0.01874772    -0.06000
C157        C  0.32089524  0.93940455  0.06128167    -0.16700
C158        C  0.31723020  0.98653811  0.08324333     0.02200
C159        C  0.24162555  0.02134089  0.99608383     0.12100
C160        C  0.24871370  0.92282940  0.94800273     0.62700
H161        H  0.30151632  0.88330206  0.00217276     0.12200
C162        C  0.34022841  0.00870033  0.13173350     0.54900
H163        H  0.28811270  0.04917616  0.07532840     0.07900
C164        C  0.22260752  0.01640321  0.01829744    -0.05900
C165        C  0.19621466  0.04111238  0.99444811    -0.06600
C166        C  0.18861177  0.07127424  0.95007066    -0.16200
C167        C  0.20819348  0.07825498  0.92937556    -0.01800
C168        C  0.23462748  0.05324566  0.95308379    -0.09300
C169        C  0.23011209  0.98456985  0.06659190     0.65000
H170        H  0.18098427  0.03637566  0.00982144     0.10400
C171        C  0.20081671  0.11047147  0.88173452     0.63300
H172        H  0.24982893  0.05727221  0.93751913     0.07800
F173        F  0.35135619  0.97025000  0.16833462    -0.19700
F174        F  0.33002453  0.04778766  0.15220043    -0.15900
F175        F  0.36128362  0.02916649  0.12133395    -0.19400
F176        F  0.24284483  0.95582305  0.90712622    -0.22800
F177        F  0.22478992  0.91706347  0.95562029    -0.24300
F178        F  0.25589198  0.87488889  0.93536339    -0.18300
F179        F  0.22269207  0.11189921  0.86747726    -0.20700
F180        F  0.19486865  0.16054898  0.89095308    -0.21900
F181        F  0.17759919  0.09002682  0.84157099    -0.19100
F182        F  0.20825929  0.98333253  0.08086368    -0.19200
F183        F  0.25309499  0.00572838  0.10663535    -0.23000
F184        F  0.23652019  0.93419511  0.05884384    -0.24600
C185        C  0.50021026  0.02184317  0.94893149    -0.11400
C186        C  0.01265781  0.97558346  0.97183793     0.11200
C187        C  0.03615186  0.95485365  0.96642130    -0.03200
C188        C  0.04619926  0.98156396  0.93580572    -0.06000
C189        C  0.03323607  0.02717006  0.90965477    -0.16700
C190        C  0.00849372  0.04563215  0.91164701     0.02200
C191        C  0.50475955  0.95593392  0.01400852     0.12100
C192        C  0.05044286  0.90461192  0.99219621     0.62700
H193        H  0.06498024  0.96779055  0.93309598     0.12200
C194        C  0.49364589  0.09350683  0.88473497     0.54900
H195        H  0.48139862  0.03512181  0.95170384     0.07900
C196        C  0.50936070  0.97598730  0.06270845    -0.05900
C197        C  0.49467390  0.95422215  0.08827077    -0.06600
C198        C  0.47585016  0.91357346  0.06686344    -0.16200
C199        C  0.47324109  0.89094072  0.02036453    -0.01800
C200        C  0.48742212  0.91316486  0.99436077    -0.09300
C201        C  0.52863852  0.02068189  0.08900337     0.65000
H202        H  0.49660616  0.97154516  0.12400442     0.10400
C203        C  0.45590368  0.84370668  0.99575162     0.63300
H204        H  0.98110843  0.89220135  0.95033219     0.07800
F205        F  0.51029786  0.13693078  0.90052717    -0.19700
F206        F  0.46908065  0.10319110  0.88964481    -0.15900
F207        F  0.98574481  0.08489081  0.83016632    -0.19400
F208        F  0.03253258  0.86383087  0.97015397    -0.22800
F209        F  0.05731474  0.90611179  0.04394699    -0.24300
F210        F  0.07492619  0.89527055  0.98679958    -0.18300
F211        F  0.43512839  0.85738965  0.94829116    -0.20700
F212        F  0.44347723  0.82185510  0.02409091    -0.21900
F213        F  0.97355139  0.80025422  0.98771521    -0.19100
F214        F  0.54834157  0.00461319  0.13667513    -0.19200
F215        F  0.51298000  0.06094989  0.09551243    -0.23000
F216        F  0.05318469  0.00189851  0.08063928    -0.24600
C217        C  0.03046970  0.91439369  0.71595933    -0.11400
C218        C  0.02822396  0.87505169  0.74696386     0.11200
C219        C  0.04787727  0.87252526  0.79902436    -0.03200
C220        C  0.06654226  0.91388488  0.82009910    -0.06000
C221        C  0.06679831  0.95673935  0.79042033    -0.16700
C222        C  0.04990946  0.95481850  0.73630088     0.02200
C223        C  0.49934859  0.84791378  0.71994945     0.12100
C224        C  0.53987179  0.83384281  0.83003235     0.62700
H225        H  0.08010458  0.91404876  0.86064486     0.12200
C226        C  0.05140919  0.99500200  0.69934231     0.54900
H227        H  0.01619568  0.91396759  0.67574955     0.07900
C228        C  0.47164165  0.85587465  0.71484240    -0.05900
C229        C  0.45183319  0.81601658  0.69336656    -0.06600
C230        C  0.45860939  0.77074641  0.67374342    -0.16200
C231        C  0.48497001  0.76775548  0.67111619    -0.01800
C232        C  0.50523117  0.80540841  0.69621785    -0.09300
C233        C  0.46313421  0.90663850  0.73099599     0.65000
H234        H  0.43128638  0.81943919  0.69295942     0.10400
C235        C  0.49191181  0.72602338  0.64107435     0.63300
H236        H  0.03179048  0.78888368  0.70125327     0.07800
F237        F  0.03781597  0.04008195  0.70225389    -0.19700
F238        F  0.03865432  0.97782500  0.64916123    -0.15900
F239        F  0.07914319  0.00517483  0.71059732    -0.19400
F240        F  0.54569395  0.78938578  0.80944312    -0.22800
F241        F  0.51347283  0.82982733  0.82869963    -0.24300
F242        F  0.55929948  0.83708964  0.88075235    -0.18300
F243        F  0.46874419  0.71683630  0.59530941    -0.20700
F244        F  0.50014161  0.68086668  0.66935065    -0.21900
F245        F  0.51359163  0.74096379  0.62940404    -0.19100
F246        F  0.43520615  0.90692411  0.72233095    -0.19200
F247        F  0.97127592  0.93352420  0.70776145    -0.23000
F248        F  0.47943149  0.91540920  0.78249853    -0.24600
C249        C  0.46143687  0.40465762  0.75967925    -0.11400
C250        C  0.47802618  0.38279685  0.73746491     0.11200
C251        C  0.47471046  0.40062040  0.68900453    -0.03200
C252        C  0.45542131  0.44096071  0.66506368    -0.06000
C253        C  0.44022453  0.46546486  0.68870968    -0.16700
C254        C  0.44318824  0.44701259  0.73693882     0.02200
C255        C  0.99483769  0.33223852  0.75484141     0.12100
C256        C  0.49186177  0.37807704  0.66286735     0.62700
H257        H  0.45318485  0.45557755  0.62854408     0.12200
C258        C  0.42824226  0.47283890  0.76556813     0.54900
H259        H  0.46380485  0.38964395  0.79611224     0.07900
C260        C  0.02055259  0.34294627  0.79773840    -0.05900
C261        C  0.04025054  0.30220395  0.81971461    -0.06600
C262        C  0.03482934  0.25160161  0.80002846    -0.16200
C263        C  0.00901812  0.24182801  0.75600251    -0.01800
C264        C  0.49099528  0.29027581  0.74518504    -0.09300
C265        C  0.02684347  0.39689904  0.82051399     0.65000
H266        H  0.05983754  0.30941238  0.85285838     0.10400
C267        C  0.00246844  0.19070711  0.72702467     0.63300
H268        H  0.47062072  0.28500050  0.71334692     0.07800
F269        F  0.44151364  0.51861905  0.78695297    -0.19700
F270        F  0.42860937  0.44174159  0.80466516    -0.15900
F271        F  0.40047535  0.48309710  0.73263761    -0.19400
F272        F  0.48299598  0.32855109  0.64589065    -0.22800
F273        F  0.01496409  0.36766678  0.68228366    -0.24300
F274        F  0.48889543  0.40748290  0.62110482    -0.18300
F275        F  0.47741033  0.20217690  0.68952876    -0.20700
F276        F  0.99812567  0.15246690  0.75590878    -0.21900
F277        F  0.52294386  0.18257179  0.72056808    -0.19100
F278        F  0.05382170  0.40018215  0.85923919    -0.19200
F279        F  0.00828261  0.40978923  0.84093189    -0.23000
F280        F  0.02411367  0.43248587  0.78307162    -0.24600
C281        C  0.13167959  0.25316888  0.70981571    -0.11400
C282        C  0.11844369  0.23510710  0.65963765     0.11200
C283        C  0.09947285  0.19337207  0.64789532    -0.03200
C284        C  0.09447406  0.17088624  0.68753922    -0.06000
C285        C  0.10763255  0.18932845  0.73804610    -0.16700
C286        C  0.12565317  0.23306494  0.74885823     0.02200
C287        C  0.12414267  0.26238967  0.61996282     0.12100
C288        C  0.08509053  0.17208940  0.59392304     0.62700
H289        H  0.08057823  0.13819025  0.67950632     0.12200
C290        C  0.13699252  0.26168796  0.79980357     0.54900
H291        H  0.14631570  0.28471926  0.71776177     0.07900
C292        C  0.11174635  0.31117570  0.59997236    -0.05900
C293        C  0.11607509  0.33257460  0.55939975    -0.06600
C294        C  0.13254881  0.30719100  0.53898650    -0.16200
C295        C  0.14732000  0.26125358  0.56255027    -0.01800
C296        C  0.14271756  0.23936086  0.60274558    -0.09300
C297        C  0.09323362  0.33985309  0.61998478     0.65000
H298        H  0.10539147  0.36807548  0.54143307     0.10400
C299        C  0.16843760  0.23643705  0.54641267     0.63300
H300        H  0.15308960  0.20350534  0.62029417     0.07800
F301        F  0.14980769  0.30757549  0.79802314    -0.19700
F302        F  0.15678711  0.23181289  0.83798087    -0.15900
F303        F  0.11515239  0.27412116  0.81219284    -0.19400
F304        F  0.10484585  0.14842477  0.58121475    -0.22800
F305        F  0.07195576  0.21167990  0.55959055    -0.24300
F306        F  0.06497978  0.13594895  0.58925364    -0.18300
F307        F  0.18429101  0.19842258  0.58056654    -0.20700
F308        F  0.18663467  0.27365084  0.54465897    -0.21900
F309        F  0.15476629  0.21401217  0.49869184    -0.19100
F310        F  0.08290469  0.38578713  0.59392589    -0.19200
F311        F  0.10844733  0.35184311  0.67111689    -0.23000
F312        F  0.07068473  0.30950973  0.61429838    -0.24600
C313        C  0.08453274  0.26625035  0.14735636    -0.11400
C314        C  0.11015476  0.24199528  0.15662820     0.11200
C315        C  0.13269668  0.24404034  0.20590058    -0.03200
C316        C  0.12860556  0.26985393  0.24489598    -0.06000
C317        C  0.10268144  0.29318577  0.23661718    -0.16700
C318        C  0.08000215  0.29107701  0.18660986     0.02200
C319        C  0.11329339  0.21760418  0.11297172     0.12100
C320        C  0.16100674  0.21902134  0.21730091     0.62700
H321        H  0.14582799  0.27112421  0.28268107     0.12200
C322        C  0.05097862  0.31356744  0.17398549     0.54900
H323        H  0.06788954  0.26476055  0.10883101     0.07900
C324        C  0.10256331  0.16806347  0.09411084    -0.05900
C325        C  0.10582802  0.14854762  0.05154598    -0.06600
C326        C  0.11868154  0.17756706  0.02688895    -0.16200
C327        C  0.12971596  0.22694449  0.04632133    -0.01800
C328        C  0.12659965  0.24616242  0.08900490    -0.09300
C329        C  0.08739932  0.13629761  0.11818704     0.65000
H330        H  0.09729856  0.11114402  0.03577279     0.10400
C331        C  0.14467431  0.25956149  0.02245889     0.63300
H332        H  0.13412705  0.28445596  0.10365179     0.07800
F333        F  0.03855173  0.28580532  0.19932166    -0.19700
F334        F  0.03343200  0.31118131  0.12209807    -0.15900
F335        F  0.05299013  0.36505271  0.18825700    -0.19400
F336        F  0.17310756  0.24327420  0.18947532    -0.22800
F337        F  0.15758886  0.16721216  0.20428722    -0.24300
F338        F  0.17945129  0.22248001  0.26862888    -0.18300
F339        F  0.12527892  0.28055948  0.97689072    -0.20700
F340        F  0.16393323  0.22952363  0.01341254    -0.21900
F341        F  0.15911864  0.29985322  0.05428178    -0.19100
F342        F  0.07891112  0.08940216  0.09361350    -0.19200
F343        F  0.06375028  0.16257866  0.11503818    -0.23000
F344        F  0.10496609  0.12649174  0.16899110    -0.24600
C345        C  0.47348599  0.06987348  0.27676361    -0.11400
C346        C  0.48510620  0.10349163  0.25334560     0.11200
C347        C  0.47571422  0.10141657  0.19951513    -0.03200
C348        C  0.45700433  0.06196183  0.17149909    -0.06000
C349        C  0.44638904  0.02659667  0.19540056    -0.16700
C350        C  0.45287339  0.03379761  0.24791629     0.02200
C351        C  0.00221874  0.14762429  0.27142514     0.12100
C352        C  0.98383371  0.13580896  0.15770960     0.62700
H353        H  0.45162801  0.05710091  0.13125584     0.12200
C354        C  0.43827941  0.00410607  0.27440416     0.54900
H355        H  0.48029478  0.07219970  0.31707169     0.07900
C356        C  0.49877115  0.18706623  0.30427793    -0.05900
C357        C  0.01749862  0.22753173  0.31936067    -0.06600
C358        C  0.04554906  0.21864435  0.32737847    -0.16200
C359        C  0.05214482  0.17163168  0.30888141    -0.01800
C360        C  0.03040019  0.13619873  0.28311220    -0.09300
C361        C  0.46860678  0.19747164  0.29552502     0.65000
H362        H  0.01242857  0.26274659  0.33410960     0.10400
C363        C  0.08135701  0.15939722  0.31338652     0.63300
H364        H  0.03500589  0.09972677  0.26963310     0.07800
F365        F  0.43769970  0.03250732  0.31459053    -0.19700
F366        F  0.45245597  0.95810809  0.29349709    -0.15900
F367        F  0.41072411  0.99400954  0.24071383    -0.19400
F368        F  0.01262755  0.13042121  0.17624763    -0.22800
F369        F  0.97726084  0.18689274  0.16252164    -0.24300
F370        F  0.97208633  0.12370193  0.10609993    -0.18300
F371        F  0.08283227  0.11109885  0.29376544    -0.20700
F372        F  0.10067490  0.15990925  0.36424041    -0.21900
F373        F  0.08855643  0.19552074  0.28615403    -0.19100
F374        F  0.46549499  0.24525649  0.31436519    -0.19200
F375        F  0.46033486  0.16030901  0.32017884    -0.23000
F376        F  0.45095992  0.19639608  0.24376474    -0.24600
C377        C  0.99787635  0.65993223  0.17692434    -0.11400
C378        C  0.49447207  0.63526974  0.21685543     0.11200
C379        C  0.47421503  0.64833119  0.23506401    -0.03200
C380        C  0.45472755  0.68840184  0.21040262    -0.06000
C381        C  0.45547230  0.71613682  0.16945171    -0.16700
C382        C  0.47485703  0.70111101  0.14983688     0.02200
C383        C  0.02076117  0.59284244  0.24344469     0.12100
C384        C  0.47352779  0.62075666  0.28079916     0.62700
H385        H  0.43945842  0.69986869  0.22431355     0.12200
C386        C  0.47444408  0.72591671  0.10217591     0.54900
H387        H  0.01255953  0.64825981  0.16179065     0.07900
C388        C  0.01477535  0.54064180  0.22806185    -0.05900
C389        C  0.03504002  0.50269062  0.25384107    -0.06600
C390        C  0.06136988  0.51441399  0.29380972    -0.16200
C391        C  0.06851969  0.56707260  0.30593736    -0.01800
C392        C  0.04781088  0.60555119  0.28070715    -0.09300
C393        C  0.98748753  0.52174413  0.18549875     0.65000
H394        H  0.02951282  0.46264653  0.24340429     0.10400
C395        C  0.09796173  0.58278756  0.34323738     0.63300
H396        H  0.05240442  0.64592149  0.29052774     0.07800
F397        F  0.99283121  0.69689354  0.08520843    -0.19700
F398        F  0.98588718  0.77396400  0.11360777    -0.15900
F399        F  0.44730483  0.72591764  0.06376698    -0.19400
F400        F  0.49941956  0.62396794  0.32253125    -0.22800
F401        F  0.46708468  0.56924188  0.26933672    -0.24300
F402        F  0.45362127  0.64228354  0.29456698    -0.18300
F403        F  0.10179397  0.63550651  0.34135763    -0.20700
F404        F  0.11750352  0.55751339  0.33099716    -0.21900
F405        F  0.10302878  0.57031564  0.39278752    -0.19100
F406        F  0.97493203  0.48760557  0.20571212    -0.19200
F407        F  0.99348170  0.49585748  0.14939538    -0.23000
F408        F  0.96841072  0.56080195  0.16078756    -0.24600
C409        C  0.23975849  0.42945842  0.46121484    -0.11400
C410        C  0.24104286  0.47598102  0.48763676     0.11200
C411        C  0.21752243  0.49279188  0.49497371    -0.03200
C412        C  0.19308394  0.46327101  0.47417211    -0.06000
C413        C  0.19109148  0.41776589  0.44584188    -0.16700
C414        C  0.21518422  0.39911921  0.44101783     0.02200
C415        C  0.26747481  0.50604545  0.50897754     0.12100
C416        C  0.21791080  0.54250683  0.52361305     0.62700
H417        H  0.17492601  0.47637450  0.47916045     0.12200
C418        C  0.21493712  0.34867437  0.41389653     0.54900
H419        H  0.25810668  0.41735712  0.45640707     0.07900
C420        C  0.29003914  0.49249703  0.55612338    -0.05900
C421        C  0.31353528  0.52494100  0.57635746    -0.06600
C422        C  0.31555211  0.56939256  0.55028169    -0.16200
C423        C  0.29309866  0.58235549  0.50247448    -0.01800
C424        C  0.26919613  0.55056798  0.48291251    -0.09300
C425        C  0.28943071  0.44340416  0.58433074     0.65000
H426        H  0.33120921  0.51463299  0.61199497     0.10400
C427        C  0.29494365  0.62760416  0.47091523     0.63300
H428        H  0.25170072  0.55975839  0.44667508     0.07800
F429        F  0.20734782  0.30849571  0.43653483    -0.19700
F430        F  0.24115251  0.33663857  0.41644630    -0.15900
F431        F  0.19600954  0.35243311  0.36293666    -0.19400
F432        F  0.21984657  0.58448235  0.49596619    -0.22800
F433        F  0.24060001  0.54226795  0.57125962    -0.24300
F434        F  0.19380151  0.54874338  0.53092145    -0.18300
F435        F  0.31775164  0.62068781  0.45986634    -0.20700
F436        F  0.29794374  0.67313530  0.49790894    -0.21900
F437        F  0.27113134  0.63226465  0.42497347    -0.19100
F438        F  0.31329469  0.43781974  0.62998171    -0.19200
F439        F  0.28785210  0.40070543  0.55432555    -0.23000
F440        F  0.26636180  0.44426448  0.59518669    -0.24600
C441        C  0.03311339  0.50520216  0.48845945    -0.11400
C442        C  0.01246635  0.47516064  0.49262147     0.11200
C443        C  0.00314205  0.42951578  0.46295402    -0.03200
C444        C  0.01747824  0.41248109  0.43425279    -0.06000
C445        C  0.03938457  0.44143433  0.43275281    -0.16700
C446        C  0.04621617  0.49005138  0.45788237     0.02200
C447        C  0.50109226  0.50301628  0.53268369     0.12100
C448        C  0.48566741  0.39542618  0.48824886     0.62700
H449        H  0.01228178  0.37581172  0.41410197     0.12200
C450        C  0.06611023  0.52738415  0.45056757     0.54900
H451        H  0.03854725  0.54163899  0.50907376     0.07900
C452        C  0.00771484  0.49260632  0.57487376    -0.05900
C453        C  0.49676060  0.53601740  0.60759394    -0.06600
C454        C  0.47372569  0.56712460  0.57605921    -0.16200
C455        C  0.46712484  0.57117702  0.52314140    -0.01800
C456        C  0.47920537  0.53584829  0.50199449    -0.09300
C457        C  0.03337391  0.45936260  0.60558796     0.65000
H458        H  0.99797600  0.51106957  0.63860236     0.10400
C459        C  0.44738310  0.61119202  0.48672993     0.63300
H460        H  0.47283684  0.53636792  0.46102156     0.07800
F461        F  0.09340158  0.50915343  0.47485989    -0.19700
F462        F  0.06524555  0.57593848  0.47033376    -0.15900
F463        F  0.05828335  0.53323516  0.39886226    -0.19400
F464        F  0.46099125  0.42363367  0.47377666    -0.22800
F465        F  0.98514806  0.37686932  0.50859652    -0.24300
F466        F  0.47972609  0.35095712  0.45878494    -0.18300
F467        F  0.45949806  0.63191071  0.45713042    -0.20700
F468        F  0.44158359  0.65209309  0.51166585    -0.21900
F469        F  0.42274510  0.58714638  0.45485183    -0.19100
F470        F  0.03992396  0.46003056  0.65727236    -0.19200
F471        F  0.05622161  0.47808586  0.59962095    -0.23000
F472        F  0.02892791  0.40875956  0.58878712    -0.24600
O473        O  0.57365447  0.32994805  0.28422703    -0.81400
C474        C  0.63023497  0.33174229  0.49055889     0.98000
O475        O  0.62351707  0.30051932  0.45389292    -0.70500
O476        O  0.59181090  0.26255359  0.36272749    -0.74100
Al477      Al  0.62121526  0.31522499  0.38921208     1.49000
C478        C  0.56632035  0.26345828  0.35573127     0.93300
O479        O  0.54602861  0.40542171  0.37010950    -0.80300
O480        O  0.58751339  0.47384598  0.37177181    -0.73800
Al481      Al  0.56351427  0.36730274  0.33225672     1.90100
O482        O  0.58169326  0.41429185  0.44517224    -0.72900
O483        O  0.63882462  0.43441774  0.40523370    -0.72800
O484        O  0.63227487  0.37990906  0.48362755    -0.78400
O485        O  0.65614064  0.35601397  0.41858674    -0.76600
O486        O  0.59798399  0.36814381  0.38142946    -1.12800
O487        O  0.61965706  0.32553641  0.32379571    -0.72000
C488        C  0.59708456  0.31967447  0.28359588     0.98800
C489        C  0.55598350  0.41820667  0.41698849     0.95200
Al490      Al  0.60947871  0.42149379  0.42303162     1.55600
O491        O  0.55508211  0.30624796  0.35754674    -0.76600
C492        C  0.65975608  0.40464322  0.41920679     0.99300
C493        C  0.57282756  0.47095864  0.32366922     0.94200
O494        O  0.56880495  0.42759566  0.30207719    -0.81900
O495        O  0.57873655  0.04899630  0.79904880    -0.83400
C496        C  0.61773463  0.15999991  0.98222348     0.98000
O497        O  0.62356561  0.11255251  0.97967195    -0.70500
O498        O  0.57417755  0.07540859  0.92962125    -0.74100
Al499      Al  0.60649299  0.06700762  0.92031992     1.49000
C500        C  0.55085623  0.06169303  0.89590273     0.93300
O501        O  0.54783998  0.16810492  0.82938478    -0.80300
O502        O  0.62189656  0.16465853  0.82553196    -0.73800
Al503      Al  0.56476522  0.10916544  0.81676501     1.90100
O504        O  0.58328635  0.21992506  0.84816420    -0.72900
O505        O  0.65241257  0.13754260  0.92296207    -0.72800
O506        O  0.61081306  0.18816987  0.94344061    -0.78400
O507        O  0.64016562  0.05565840  0.91529603    -0.76600
O508        O  0.59581192  0.11648532  0.87351583    -1.12800
O509        O  0.59019015  0.00958560  0.87158050    -0.72000
C510        C  0.57978727  0.00799315  0.82289703     0.98800
C511        C  0.55690503  0.21285849  0.83029799     0.95200
Al512      Al  0.61576362  0.17323520  0.88459920     1.55600
O513        O  0.54458074  0.06893041  0.84868469    -0.76600
C514        C  0.65891872  0.08942285  0.92724995     0.99300
C515        C  0.60221902  0.16607779  0.78103294     0.94200
O516        O  0.57823771  0.14817050  0.77296216    -0.81900
O517        O  0.92432756  0.54125465  0.68597935    -0.81400
C518        C  0.88257868  0.67153093  0.51265547     0.98000
O519        O  0.87809109  0.62336799  0.51190801    -0.70500
O520        O  0.92791620  0.58192230  0.55883050    -0.74100
Al521      Al  0.89564655  0.57312202  0.56714308     1.49000
C522        C  0.95256414  0.57397186  0.59218903     0.93300
O523        O  0.95408992  0.66805525  0.67212304    -0.80300
O524        O  0.88010529  0.66130097  0.66944171    -0.73800
Al525      Al  0.93725615  0.60582197  0.67541941     1.90100
O526        O  0.91811352  0.72070298  0.64996419    -0.72900
O527        O  0.84977827  0.64156839  0.57221246    -0.72800
O528        O  0.89028633  0.69562999  0.55394548    -0.78400
O529        O  0.86244126  0.56017161  0.57207174    -0.76600
O530        O  0.90646699  0.61821145  0.61852608    -1.12800
O531        O  0.91158733  0.51239757  0.60847144    -0.72000
C532        C  0.92151683  0.50421091  0.65607600     0.98800
C533        C  0.94444912  0.71332563  0.66643253     0.95200
Al534      Al  0.88615269  0.67521195  0.61184609     1.55600
O535        O  0.95830369  0.57507011  0.63973427    -0.76600
C536        C  0.84376908  0.59366822  0.56566465     0.99300
C537        C  0.89810195  0.65143108  0.71395034     0.94200
O538        O  0.92233937  0.63470114  0.72130639    -0.81900
O539        O  0.93113768  0.84243373  0.22094805    -0.81400
C540        C  0.87846584  0.81793011  0.01154733     0.98000
O541        O  0.88501817  0.79284135  0.05216890    -0.70500
O542        O  0.91558099  0.76331413  0.14753285    -0.74100
Al543      Al  0.88627201  0.81675297  0.11431175     1.49000
C544        C  0.94151087  0.76235134  0.15714378     0.93300
O545        O  0.96270297  0.89642070  0.13223601    -0.80300
O546        O  0.92056827  0.97127494  0.11424344    -0.73800
Al547      Al  0.94329798  0.86952703  0.17099712     1.90100
O548        O  0.92946396  0.89734962  0.05365487    -0.72900
O549        O  0.86871523  0.93622368  0.07950584    -0.72800
O550        O  0.87770760  0.86717028  0.01290943    -0.78400
O551        O  0.85184240  0.85931266  0.08014466    -0.76600
O552        O  0.90976216  0.86691026  0.11831055    -1.12800
O553        O  0.88571609  0.83525110  0.17689430    -0.72000
C554        C  0.90710399  0.83448412  0.21945070     0.98800
C555        C  0.95498604  0.89859581  0.08424224     0.95200
Al556      Al  0.89976584  0.91425534  0.06916403     1.55600
O557        O  0.95384393  0.80364693  0.15744564    -0.76600
C558        C  0.84847007  0.90818886  0.07461890     0.99300
C559        C  0.93246856  0.97564184  0.16275953     0.94200
O560        O  0.93654801  0.93602914  0.19015174    -0.81900
C561        C  0.85918798  0.69582302  0.79265985    -0.11400
C562        C  0.88187311  0.70950622  0.83855044     0.11200
C563        C  0.90941565  0.69495909  0.84645188    -0.03200
C564        C  0.91369154  0.67353958  0.80560242    -0.06000
C565        C  0.89125483  0.66434069  0.75771738    -0.16700
C566        C  0.86322716  0.67250838  0.75215697     0.02200
C567        C  0.87627620  0.73817763  0.87819850     0.12100
C568        C  0.93431472  0.70369679  0.89740676     0.62700
H569        H  0.93488870  0.66581726  0.81034143     0.12200
C570        C  0.83746976  0.65617960  0.70458675     0.54900
H571        H  0.83817828  0.70477529  0.78838548     0.07900
C572        C  0.87396831  0.79281714  0.87835086    -0.05900
C573        C  0.87305372  0.81753748  0.92123553    -0.06600
C574        C  0.87351281  0.78927026  0.96308574    -0.16200
C575        C  0.87165385  0.73408008  0.95883241    -0.01800
C576        C  0.87358377  0.70980739  0.91675657    -0.09300
C577        C  0.87298090  0.82473101  0.83371776     0.65000
H578        H  0.87324123  0.85936756  0.92319831     0.10400
C579        C  0.86762991  0.69994442  0.99778552     0.63300
H580        H  0.87398288  0.66798729  0.91440566     0.07800
F581        F  0.83271567  0.68977147  0.66459100    -0.19700
F582        F  0.81354960  0.65640950  0.71300169    -0.15900
F583        F  0.84129945  0.60638894  0.69080206    -0.19400
F584        F  0.93053446  0.67809032  0.93573708    -0.22800
F585        F  0.93668109  0.75586030  0.90757990    -0.24300
F586        F  0.95923779  0.68605872  0.89761762    -0.18300
F587        F  0.86041090  0.64998240  0.97979941    -0.20700
F588        F  0.84616151  0.71972053  0.00817821    -0.21900
F589        F  0.89222857  0.69696802  0.04238926    -0.19100
F590        F  0.86910272  0.87690846  0.83998432    -0.19200
F591        F  0.85088946  0.80880675  0.78892929    -0.23000
F592        F  0.89780417  0.81850371  0.82901295    -0.24600
C593        C  0.91867818  0.77950925  0.35009770    -0.11400
C594        C  0.89083095  0.77483513  0.34295185     0.11200
C595        C  0.86899007  0.79758420  0.29966026    -0.03200
C596        C  0.87553002  0.81870531  0.26148117    -0.06000
C597        C  0.90331039  0.81995745  0.26620304    -0.16700
C598        C  0.92556211  0.80272665  0.31308863     0.02200
C599        C  0.88545024  0.74773485  0.38287718     0.12100
C600        C  0.83909550  0.80035975  0.29456506     0.62700
H601        H  0.85861800  0.83418837  0.22703079     0.12200
C602        C  0.95637387  0.80826625  0.32482646     0.54900
H603        H  0.93510276  0.76390131  0.38514906     0.07900
C604        C  0.88263000  0.69336970  0.38313361    -0.05900
C605        C  0.87956446  0.67028804  0.42441365    -0.06600
C606        C  0.88035440  0.69964340  0.46605606    -0.16200
C607        C  0.88140939  0.75476695  0.46373721    -0.01800
C608        C  0.88431597  0.77747226  0.42231137    -0.09300
C609        C  0.88381136  0.65984564  0.34083256     0.65000
H610        H  0.87792240  0.62875522  0.42554876     0.10400
C611        C  0.87944119  0.79042536  0.50409986     0.63300
H612        H  0.88646074  0.81892804  0.42087293     0.07800
F613        F  0.97393236  0.79268664  0.37421251    -0.19700
F614        F  0.96206082  0.85953381  0.32023976    -0.15900
F615        F  0.96278806  0.77831686  0.29163426    -0.19400
F616        F  0.83836429  0.83089887  0.33330427    -0.22800
F617        F  0.82970415  0.75152411  0.29812287    -0.24300
F618        F  0.82066952  0.82164459  0.24824470    -0.18300
F619        F  0.90397337  0.78745491  0.54891353    -0.20700
F620        F  0.85676173  0.77679799  0.51333840    -0.21900
F621        F  0.87555499  0.84163056  0.48851054    -0.19100
F622        F  0.88010525  0.60800806  0.34782207    -0.19200
F623        F  0.90962890  0.66497807  0.33990272    -0.23000
F624        F  0.86295089  0.67482975  0.29396096    -0.24600
C625        C  0.79052498  0.00670456  0.05774740    -0.11400
C626        C  0.76802015  0.98725850  0.01430391     0.11200
C627        C  0.77174743  0.94056409  0.99192387    -0.03200
C628        C  0.79773218  0.91377455  0.01518377    -0.06000
C629        C  0.82043272  0.93363374  0.05822265    -0.16700
C630        C  0.81683575  0.98115163  0.07981115     0.02200
C631        C  0.74067246  0.01634621  0.99388638     0.12100
C632        C  0.74866504  0.92001210  0.94277264     0.62700
H633        H  0.80102568  0.87847552  0.99826122     0.12200
C634        C  0.84078335  0.00601744  0.12504223     0.54900
H635        H  0.78745082  0.04290955  0.07360731     0.07900
C636        C  0.72144274  0.01020839  0.01556991    -0.05900
C637        C  0.69564205  0.03718901  0.99383207    -0.06600
C638        C  0.68843272  0.07024791  0.95153916    -0.16200
C639        C  0.70782403  0.07753640  0.93050661    -0.01800
C640        C  0.73396933  0.05088770  0.95262171    -0.09300
C641        C  0.72804142  0.97495288  0.06130677     0.65000
H642        H  0.68043662  0.03192711  0.00923344     0.10400
C643        C  0.70022259  0.11118964  0.88358388     0.63300
H644        H  0.74910862  0.05574728  0.93706624     0.07800
F645        F  0.85505712  0.96930796  0.16210419    -0.19700
F646        F  0.83114328  0.04414012  0.14744043    -0.15900
F647        F  0.85911452  0.02857210  0.10867163    -0.19400
F648        F  0.74235559  0.95594234  0.90403592    -0.22800
F649        F  0.72480678  0.91065469  0.94967385    -0.24300
F650        F  0.75661851  0.87435306  0.92725230    -0.18300
F651        F  0.72164805  0.11243061  0.86817421    -0.20700
F652        F  0.69490231  0.16125897  0.89422233    -0.21900
F653        F  0.67646872  0.09209764  0.84353306    -0.19100
F654        F  0.70588416  0.97267786  0.07474518    -0.19200
F655        F  0.75119406  0.99313844  0.10306836    -0.23000
F656        F  0.73364948  0.92526420  0.05016662    -0.24600
C657        C  0.99849391  0.01933109  0.94300130    -0.11400
C658        C  0.51552235  0.98015920  0.97994567     0.11200
C659        C  0.53957158  0.96056958  0.97584756    -0.03200
C660        C  0.54838553  0.98546467  0.94251932    -0.06000
C661        C  0.53434565  0.02951557  0.91434054    -0.16700
C662        C  0.50948117  0.04722042  0.91612635     0.02200
C663        C  0.00169451  0.95133119  0.00585858     0.12100
C664        C  0.55648786  0.91515936  0.00811072     0.62700
H665        H  0.56753642  0.97264784  0.94055128     0.12200
C666        C  0.99329693  0.09312872  0.88163775     0.54900
H667        H  0.97990003  0.03330501  0.94618766     0.07900
C668        C  0.00721659  0.97120353  0.05501025    -0.05900
C669        C  0.99358570  0.94920861  0.08243686    -0.06600
C670        C  0.97503554  0.90801796  0.06237414    -0.16200
C671        C  0.97183136  0.88509245  0.01558181    -0.01800
C672        C  0.98470945  0.90805244  0.98762695    -0.09300
C673        C  0.02724871  0.01547821  0.07815194     0.65000
H674        H  0.99589429  0.96636416  0.11837387     0.10400
C675        C  0.95550248  0.83637392  0.99325029     0.63300
H676        H  0.48442657  0.89768518  0.95771756     0.07800
F677        F  0.01068937  0.13554432  0.89787842    -0.19700
F678        F  0.96915436  0.10401981  0.88768422    -0.15900
F679        F  0.48676797  0.08431820  0.83363961    -0.19400
F680        F  0.54004051  0.87146878  0.99650336    -0.22800
F681        F  0.56567081  0.92657127  0.05948801    -0.24300
F682        F  0.57983435  0.90391436  0.99954448    -0.18300
F683        F  0.93398379  0.84770975  0.94582843    -0.20700
F684        F  0.94414156  0.81443425  0.02325649    -0.21900
F685        F  0.47327429  0.80653496  0.98964128    -0.19100
F686        F  0.03070150  0.02702691  0.12726836    -0.19200
F687        F  0.01722320  0.05935163  0.04838790    -0.23000
F688        F  0.54283875  0.03899842  0.06212737    -0.24600
C689        C  0.52641884  0.92411811  0.71757609    -0.11400
C690        C  0.52235774  0.88510898  0.74668809     0.11200
C691        C  0.54098055  0.88042170  0.79917374    -0.03200
C692        C  0.56095242  0.91956989  0.82233195    -0.06000
C693        C  0.56369079  0.96168378  0.79398554    -0.16700
C694        C  0.54716357  0.96187761  0.73965377     0.02200
C695        C  0.00553274  0.83621235  0.72326567     0.12100
C696        C  0.04883093  0.82672996  0.83237688     0.62700
H697        H  0.57400547  0.91816044  0.86315924     0.12200
C698        C  0.55000384  0.00207335  0.70402342     0.54900
H699        H  0.51257219  0.92529603  0.67699122     0.07900
C700        C  0.97838542  0.84317985  0.72117596    -0.05900
C701        C  0.95860271  0.80294636  0.70123752    -0.06600
C702        C  0.96488392  0.75713885  0.68157562    -0.16200
C703        C  0.99134440  0.75306796  0.67923497    -0.01800
C704        C  0.01125029  0.79235973  0.70093755    -0.09300
C705        C  0.97027682  0.89363832  0.73859455     0.65000
H706        H  0.93824098  0.80676713  0.70150787     0.10400
C707        C  0.99875330  0.70835628  0.65293566     0.63300
H708        H  0.52601777  0.80183651  0.69762930     0.07800
F709        F  0.53714901  0.04788656  0.70746942    -0.19700
F710        F  0.53732856  0.98614374  0.65344265    -0.15900
F711        F  0.57802902  0.01026602  0.71622558    -0.19400
F712        F  0.05304906  0.78158105  0.81074199    -0.22800
F713        F  0.02383176  0.82354775  0.83668698    -0.24300
F714        F  0.07045906  0.83076110  0.88114101    -0.18300
F715        F  0.97639812  0.69855047  0.60643811    -0.20700
F716        F  0.00523863  0.66462518  0.68336945    -0.21900
F717        F  0.02166429  0.71937544  0.64336530    -0.19100
F718        F  0.94338471  0.89213279  0.73548294    -0.19200
F719        F  0.46688036  0.94672067  0.70311864    -0.23000
F720        F  0.98864083  0.90413156  0.78876182    -0.24600
C721        C  0.95641192  0.39304371  0.74788117    -0.11400
C722        C  0.97368895  0.37286216  0.72634796     0.11200
C723        C  0.96991000  0.39008876  0.67731315    -0.03200
C724        C  0.95058528  0.43039411  0.65368244    -0.06000
C725        C  0.93512074  0.45387208  0.67734404    -0.16700
C726        C  0.93717680  0.43368831  0.72423332     0.02200
C727        C  0.49815127  0.34014255  0.76472942     0.12100
C728        C  0.98652581  0.36703339  0.65024437     0.62700
H729        H  0.94856244  0.44583266  0.61758894     0.12200
C730        C  0.91982720  0.45559569  0.75011767     0.54900
H731        H  0.95863494  0.37767398  0.78410746     0.07900
C732        C  0.52452603  0.34859527  0.80686075    -0.05900
C733        C  0.54298094  0.30601504  0.82798758    -0.06600
C734        C  0.53612746  0.25597167  0.80742444    -0.16200
C735        C  0.50981976  0.24833145  0.76393279    -0.01800
C736        C  0.98918752  0.28196437  0.73614297    -0.09300
C737        C  0.53355192  0.40258239  0.82798736     0.65000
H738        H  0.56314815  0.31166013  0.86026599     0.10400
C739        C  0.50191766  0.19760597  0.73429576     0.63300
H740        H  0.96901826  0.27481245  0.70437456     0.07800
F741        F  0.93203621  0.50038590  0.77604304    -0.19700
F742        F  0.91817024  0.42077579  0.78486759    -0.15900
F743        F  0.89273318  0.46651721  0.71416994    -0.19400
F744        F  0.97834261  0.31666959  0.63582001    -0.22800
F745        F  0.52007586  0.37663889  0.69640386    -0.24300
F746        F  0.98207656  0.39434437  0.60639005    -0.18300
F747        F  0.97847290  0.19391656  0.68120682    -0.20700
F748        F  0.49766088  0.15954052  0.76346804    -0.21900
F749        F  0.02428358  0.17692758  0.71507277    -0.19100
F750        F  0.55955987  0.40210432  0.86982274    -0.19200
F751        F  0.51440891  0.42417265  0.84346520    -0.23000
F752        F  0.53518273  0.43346815  0.79052065    -0.24600
C753        C  0.62837692  0.25924278  0.70871076    -0.11400
C754        C  0.61680332  0.23852004  0.65942290     0.11200
C755        C  0.60016214  0.19334261  0.64948451    -0.03200
C756        C  0.59584276  0.17051836  0.68992416    -0.06000
C757        C  0.60719544  0.19193652  0.73942176    -0.16700
C758        C  0.62274985  0.23872574  0.74814393     0.02200
C759        C  0.62242873  0.26585908  0.61933656     0.12100
C760        C  0.58731856  0.16891456  0.59666110     0.62700
H761        H  0.58382448  0.13533829  0.68327629     0.12200
C762        C  0.63193357  0.26977611  0.79733215     0.54900
H763        H  0.64166776  0.29263958  0.71586114     0.07900
C764        C  0.61072989  0.31544919  0.59995283    -0.05900
C765        C  0.61631769  0.33775154  0.56111216    -0.06600
C766        C  0.63227410  0.31190748  0.53998567    -0.16200
C767        C  0.64522696  0.26376729  0.56111501    -0.01800
C768        C  0.64043645  0.24208124  0.60119950    -0.09300
C769        C  0.59131882  0.34401264  0.61803889     0.65000
H770        H  0.60664594  0.37461868  0.54442208     0.10400
C771        C  0.66401617  0.23535931  0.54154613     0.63300
H772        H  0.65018110  0.20532118  0.61787780     0.07800
F773        F  0.64179554  0.31811015  0.79310617    -0.19700
F774        F  0.65323590  0.24407705  0.83719767    -0.15900
F775        F  0.60929370  0.27783319  0.80851535    -0.19400
F776        F  0.60811745  0.14490271  0.58711084    -0.22800
F777        F  0.57409492  0.20627047  0.55968239    -0.24300
F778        F  0.56756938  0.13220718  0.59253636    -0.18300
F779        F  0.67922765  0.19595392  0.57440089    -0.20700
F780        F  0.68290381  0.26941253  0.53720002    -0.21900
F781        F  0.64796059  0.21363074  0.49427325    -0.19100
F782        F  0.58011707  0.38852417  0.58973939    -0.19200
F783        F  0.60585988  0.35854698  0.66860912    -0.23000
F784        F  0.56929028  0.31253319  0.61301380    -0.24600
C785        C  0.57976573  0.25296457  0.15481686    -0.11400
C786        C  0.60682695  0.24633034  0.15791486     0.11200
C787        C  0.63024102  0.26526712  0.20083577    -0.03200
C788        C  0.62564940  0.29104321  0.23926347    -0.06000
C789        C  0.59864866  0.29687057  0.23742926    -0.16700
C790        C  0.57511928  0.27661848  0.19447525     0.02200
C791        C  0.60996239  0.22240258  0.11402934     0.12100
C792        C  0.66008432  0.25737421  0.20664385     0.62700
H793        H  0.64353217  0.30616724  0.27177714     0.12200
C794        C  0.54532937  0.27833138  0.19014786     0.54900
H795        H  0.56227089  0.23891415  0.12091635     0.07900
C796        C  0.60857677  0.16840024  0.10535590    -0.05900
C797        C  0.61240743  0.14922491  0.06308162    -0.06600
C798        C  0.61740163  0.18246822  0.02950324    -0.16200
C799        C  0.61938723  0.23674960  0.03950924    -0.01800
C800        C  0.61486337  0.25548188  0.08087572    -0.09300
C801        C  0.60248035  0.13158893  0.13999232     0.65000
H802        H  0.61052559  0.10814225  0.05498025     0.10400
C803        C  0.62666988  0.27551782  0.00783110     0.63300
H804        H  0.61528076  0.29676250  0.08810270     0.07800
F805        F  0.54436872  0.25284753  0.23123843    -0.19700
F806        F  0.52640213  0.25436646  0.14607386    -0.15900
F807        F  0.53654446  0.32915843  0.18891222    -0.19400
F808        F  0.66372782  0.28365595  0.16856611    -0.22800
F809        F  0.66530438  0.20526073  0.20341522    -0.24300
F810        F  0.67985503  0.27525666  0.25331074    -0.18300
F811        F  0.60384300  0.28323882  0.96108361    -0.20700
F812        F  0.64946206  0.25767915  0.00043640    -0.21900
F813        F  0.63383155  0.32310386  0.03194778    -0.19100
F814        F  0.60468929  0.08036255  0.12795297    -0.19200
F815        F  0.57550075  0.14020490  0.13493799    -0.23000
F816        F  0.62126860  0.13934951  0.19049097    -0.24600
C817        C  0.96893740  0.07796158  0.26526493    -0.11400
C818        C  0.98047570  0.10943399  0.24007862     0.11200
C819        C  0.97294319  0.10116496  0.18731304    -0.03200
C820        C  0.95530253  0.05932348  0.16226523    -0.06000
C821        C  0.94502584  0.02566825  0.18815868    -0.16700
C822        C  0.95075647  0.03700295  0.23991066     0.02200
C823        C  0.50648302  0.14147705  0.28615159     0.12100
C824        C  0.48563433  0.14042735  0.17198651     0.62700
H825        H  0.95079616  0.05082185  0.12287887     0.12200
C826        C  0.93828276  0.00613900  0.26945537     0.54900
H827        H  0.97512776  0.08422596  0.30500867     0.07900
C828        C  0.99560346  0.19376966  0.29056918    -0.05900
C829        C  0.51952804  0.22386477  0.33003893    -0.06600
C830        C  0.54784026  0.21674779  0.33902592    -0.16200
C831        C  0.55605200  0.16813325  0.32610392    -0.01800
C832        C  0.53500996  0.13162680  0.29919326    -0.09300
C833        C  0.96552564  0.20847226  0.27940581     0.65000
H834        H  0.51333264  0.25975145  0.34194594     0.10400
C835        C  0.58657286  0.15432861  0.34026548     0.63300
H836        H  0.54056691  0.09533950  0.28680325     0.07800
F837        F  0.94084785  0.03177733  0.31333882    -0.19700
F838        F  0.95203771  0.95905039  0.28410897    -0.15900
F839        F  0.90998934  0.99830756  0.23938397    -0.19400
F840        F  0.51414017  0.13425440  0.18688688    -0.22800
F841        F  0.48036848  0.19013092  0.18374768    -0.24300
F842        F  0.47192952  0.13471679  0.11935864    -0.18300
F843        F  0.58991654  0.10268962  0.33097899    -0.20700
F844        F  0.60259658  0.16316634  0.39194184    -0.21900
F845        F  0.59649173  0.18369061  0.31187357    -0.19100
F846        F  0.96366243  0.25747002  0.29739883    -0.19200
F847        F  0.95499284  0.17383301  0.30269791    -0.23000
F848        F  0.94895392  0.20811667  0.22718016    -0.24600
C849        C  0.49428408  0.66117733  0.17438811    -0.11400
C850        C  0.99946470  0.63495541  0.22089858     0.11200
C851        C  0.98011628  0.64855940  0.24100593    -0.03200
C852        C  0.95986386  0.68770544  0.21648989    -0.06000
C853        C  0.95894080  0.71425501  0.17356468    -0.16700
C854        C  0.97785217  0.69928752  0.15268750     0.02200
C855        C  0.51587533  0.59383286  0.24067503     0.12100
C856        C  0.98118849  0.62210043  0.28850602     0.62700
H857        H  0.94527775  0.69924589  0.23184926     0.12200
C858        C  0.97643914  0.72364875  0.10411863     0.54900
H859        H  0.50974377  0.64995573  0.16080866     0.07900
C860        C  0.51071796  0.54240078  0.22294644    -0.05900
C861        C  0.53039817  0.50398822  0.25044430    -0.06600
C862        C  0.55601152  0.51574597  0.29267174    -0.16200
C863        C  0.56298062  0.56842256  0.30498462    -0.01800
C864        C  0.54225687  0.60668790  0.27980218    -0.09300
C865        C  0.48502209  0.52851353  0.17418440     0.65000
H866        H  0.52548090  0.46401952  0.23928759     0.10400
C867        C  0.59234450  0.58455354  0.34195836     0.63300
H868        H  0.54648803  0.64694960  0.29053657     0.07800
F869        F  0.49135683  0.69918910  0.08440646    -0.19700
F870        F  0.48402072  0.77609082  0.11254048    -0.15900
F871        F  0.94901403  0.72314970  0.06691157    -0.19400
F872        F  0.00759055  0.62746857  0.32852377    -0.22800
F873        F  0.97555204  0.57006931  0.27876340    -0.24300
F874        F  0.96173566  0.64306634  0.30371792    -0.18300
F875        F  0.59673842  0.63633314  0.33602197    -0.20700
F876        F  0.61208112  0.55596443  0.33291329    -0.21900
F877        F  0.59647372  0.57685482  0.39183288    -0.19100
F878        F  0.48387420  0.47597496  0.16411201    -0.19200
F879        F  0.48601878  0.55411213  0.13319450    -0.23000
F880        F  0.46062900  0.54277762  0.17774790    -0.24600
C881        C  0.73729713  0.43826284  0.45984978    -0.11400
C882        C  0.73877559  0.48552432  0.48514788     0.11200
C883        C  0.71493024  0.50449539  0.49026880    -0.03200
C884        C  0.68998717  0.47621262  0.46836823    -0.06000
C885        C  0.68802422  0.42920294  0.44207337    -0.16700
C886        C  0.71230898  0.40911194  0.43880732     0.02200
C887        C  0.76566460  0.51426328  0.50737242     0.12100
C888        C  0.71578371  0.55459913  0.51875036     0.62700
H889        H  0.67165694  0.49093215  0.47181979     0.12200
C890        C  0.71182440  0.35795690  0.41268324     0.54900
H891        H  0.75593173  0.42443530  0.45684204     0.07900
C892        C  0.78796855  0.49972862  0.55461545    -0.05900
C893        C  0.81208003  0.53047768  0.57480877    -0.06600
C894        C  0.81493852  0.57415718  0.54881435    -0.16200
C895        C  0.79244193  0.58933984  0.50203537    -0.01800
C896        C  0.76802290  0.55897507  0.48213554    -0.09300
C897        C  0.78716965  0.45040359  0.58226380     0.65000
H898        H  0.82981388  0.51872180  0.60986407     0.10400
C899        C  0.79473670  0.63562558  0.47209131     0.63300
H900        H  0.75063777  0.56933291  0.44607894     0.07800
F901        F  0.70615931  0.31836831  0.43867720    -0.19700
F902        F  0.73734437  0.34687631  0.41181763    -0.15900
F903        F  0.69135627  0.35956580  0.36270671    -0.19400
F904        F  0.71834229  0.59616427  0.49125660    -0.22800
F905        F  0.73835817  0.55381679  0.56659222    -0.24300
F906        F  0.69165679  0.56207063  0.52573612    -0.18300
F907        F  0.81648355  0.62766833  0.45824701    -0.20700
F908        F  0.79982960  0.67970903  0.50184994    -0.21900
F909        F  0.77030978  0.64386657  0.42788340    -0.19100
F910        F  0.80875017  0.44839315  0.63127993    -0.19200
F911        F  0.78998615  0.40817368  0.55531449    -0.23000
F912        F  0.76208476  0.44703777  0.58631560    -0.24600
C913        C  0.53394604  0.50762131  0.49535902    -0.11400
C914        C  0.51583074  0.47651107  0.50615062     0.11200
C915        C  0.50761914  0.42785098  0.48164465    -0.03200
C916        C  0.52020213  0.41004315  0.45028515    -0.06000
C917        C  0.53880960  0.44126034  0.44041647    -0.16700
C918        C  0.54471663  0.49186825  0.46133663     0.02200
C919        C  0.99825058  0.49911054  0.52145976     0.12100
C920        C  0.97836077  0.39925846  0.46149863     0.62700
H921        H  0.51598352  0.37146666  0.43394054     0.12200
C922        C  0.56101894  0.53050181  0.44586264     0.54900
H923        H  0.53853047  0.54597836  0.51231924     0.07900
C924        C  0.51184068  0.50622217  0.58662640    -0.05900
C925        C  0.99358619  0.51994635  0.59936857    -0.06600
C926        C  0.97322153  0.55807499  0.57289029    -0.16200
C927        C  0.96867804  0.57152794  0.52237204    -0.01800
C928        C  0.97948961  0.53921052  0.49646582    -0.09300
C929        C  0.53934567  0.47990489  0.62123018     0.65000
H930        H  0.50251520  0.53438450  0.64824777     0.10400
C931        C  0.95336826  0.61981486  0.49379093     0.63300
H932        H  0.97474793  0.54760855  0.45688732     0.07800
F933        F  0.58895821  0.51615814  0.46572920    -0.19700
F934        F  0.55968634  0.57988720  0.46350176    -0.15900
F935        F  0.54963972  0.53281341  0.39311513    -0.19400
F936        F  0.95539318  0.43181127  0.44943139    -0.22800
F937        F  0.49523815  0.38084713  0.53875688    -0.24300
F938        F  0.97070982  0.36032140  0.42512981    -0.18300
F939        F  0.97104371  0.64727910  0.47914359    -0.20700
F940        F  0.94509908  0.65281460  0.52239386    -0.21900
F941        F  0.93004936  0.60532565  0.45043099    -0.19100
F942        F  0.54563741  0.48669743  0.67245313    -0.19200
F943        F  0.56092029  0.50064066  0.61247520    -0.23000
F944        F  0.53805023  0.42750063  0.61134894    -0.24600
loop_ 
_geom_bond_atom_site_label_1 
_geom_bond_atom_site_label_2 
_geom_bond_distance 
_geom_bond_site_symmetry_2 
_ccdc_geom_bond_type 
O1           C16   1.269       .  A
O1           Al9   1.943       .  S
C2           O12   1.273       .  A
C2            O3   1.260       .  A
C2          C294   1.480       .  S
O3           Al5   1.878       .  S
O4            C6   1.271       .  A
O4           Al5   1.963       .  S
Al5          O13   1.977       .  S
Al5          O15   1.887       .  S
Al5          O14   1.776       .  S
C6           O19   1.259       .  A
C6          C358   1.501       .  S
O7           C17   1.271       .  A
O7           Al9   1.964       .  S
O8           C21   1.268       .  A
O8          Al18   1.959       .  S
Al9          O22   1.879       .  S
Al9          O19   1.874       .  S
Al9          O14   1.760       .  S
O10          C17   1.252       .  A
O10         Al18   1.856       .  S
O11          C20   1.255       .  A
O11         Al18   1.863       .  S
O12         Al18   1.956       .  S
O13          C20   1.272       .  A
O14         Al18   1.760       .  S
O15          C16   1.266       .  A
C16         C317   1.495       .  S
C17         C445   1.469       .  S
C20         C413   1.488       .  S
C21          O22   1.257       .  A
C21         C390   1.491       .  S
O23          C38   1.255       .  A
O23         Al31   1.881       .  S
C24          O34   1.257       .  A
C24          O25   1.270       .  A
C24         C326   1.477   1_556  S
O25         Al27   1.944       .  S
O26          C28   1.252       .  A
O26         Al27   1.855       .  S
Al27         O35   1.873       .  S
Al27         O37   1.963       .  S
Al27         O36   1.763       .  S
C28          O41   1.274       .  A
C28         C189   1.473       .  S
O29          C39   1.252       .  A
O29         Al31   1.870       .  S
O30          C43   1.255       .  A
O30         Al40   1.870       .  S
Al31         O44   1.979       .  S
Al31         O41   1.986       .  S
Al31         O36   1.764       .  S
O32          C39   1.275       .  A
O32         Al40   1.986       .  S
O33          C42   1.276       .  A
O33         Al40   1.977       .  S
O34         Al40   1.876       .  S
O35          C42   1.259       .  A
O36         Al40   1.765       .  S
O37          C38   1.273       .  A
C38         C221   1.501   1_545  S
C39         C262   1.495       .  S
C42         C166   1.482       .  S
C43          O44   1.275       .  A
C43         C285   1.492       .  S
O45          C60   1.255       .  A
O45         Al53   1.884       .  S
C46          O56   1.252       .  A
C46          O47   1.272       .  A
C46         C134   1.503       .  S
O47         Al49   1.961       .  S
O48          C50   1.253       .  A
O48         Al49   1.835       .  S
Al49         O57   1.858       .  S
Al49         O59   1.945       .  S
Al49         O58   1.769       .  S
C50          O63   1.272       .  A
C50         C454   1.478       .  S
O51          C61   1.252       .  A
O51         Al53   1.854       .  S
O52          C65   1.255       .  A
O52         Al62   1.869       .  S
Al53         O66   1.943       .  S
Al53         O63   1.963       .  S
Al53         O58   1.774       .  S
O54          C61   1.272       .  A
O54         Al62   1.969       .  S
O55          C64   1.275       .  A
O55         Al62   1.979       .  S
O56         Al62   1.871       .  S
O57          C64   1.255       .  A
O58         Al62   1.776       .  S
O59          C60   1.269       .  A
C60         C253   1.487       .  S
C61         C230   1.492       .  S
C64         C422   1.484       .  S
C65          O66   1.271       .  A
C65          C93   1.491       .  S
O67          C82   1.270       .  A
O67         Al75   1.954       .  S
C68          O78   1.272       .  A
C68          O69   1.254       .  A
C68         C102   1.496   1_554  S
O69         Al71   1.866       .  S
O70          C72   1.269       .  A
O70         Al71   1.955       .  S
Al71         O79   1.953       .  S
Al71         O81   1.880       .  S
Al71         O80   1.773       .  S
C72          O85   1.255       .  A
C72         C381   1.481       .  S
O73          C83   1.269       .  A
O73         Al75   1.948       .  S
O74          C87   1.270       .  A
O74         Al84   1.957       .  S
Al75         O88   1.877       .  S
Al75         O85   1.877       .  S
Al75         O80   1.767       .  S
O76          C83   1.255       .  A
O76         Al84   1.857       .  S
O77          C86   1.255       .  A
O77         Al84   1.872       .  S
O78         Al84   1.964       .  S
O79          C86   1.271       .  A
O80         Al84   1.777       .  S
O81          C82   1.261       .  A
C82         C125   1.502       .  S
C83         C198   1.470       .  S
C86         C157   1.480       .  S
C87          O88   1.258       .  A
C87         C349   1.492   1_565  S
C89          C90   1.397       .  A
C89          C94   1.406       .  A
C89          H99   1.084       .  S
C90          C95   1.484       .  S
C90          C91   1.416       .  A
C91          C92   1.406       .  A
C91          C96   1.516       .  S
C92          C93   1.406       .  A
C92          H97   1.083       .  S
C93          C94   1.428       .  A
C94          C98   1.521       .  S
C95         C100   1.414       .  A
C95         C104   1.395       .  A
C96         F112   1.383       .  S
C96         F113   1.377       .  S
C96         F114   1.385       .  S
C98         F109   1.383       .  S
C98         F110   1.385       .  S
C98         F111   1.384       .  S
C100        C101   1.413       .  A
C100        C105   1.519       .  S
C101        C102   1.409       .  A
C101        H106   1.082       .  S
C102        C103   1.428       .  A
C103        C104   1.404       .  A
C103        C107   1.520       .  S
C104        H108   1.083       .  S
C105        F118   1.384       .  S
C105        F119   1.383       .  S
C105        F120   1.381       .  S
C107        F115   1.385       .  S
C107        F116   1.384       .  S
C107        F117   1.383   1_556  S
C121        C122   1.401       .  A
C121        C126   1.411       .  A
C121        H131   1.083       .  S
C122        C127   1.487       .  S
C122        C123   1.412       .  A
C123        C124   1.407       .  A
C123        C128   1.522       .  S
C124        C125   1.413       .  A
C124        H129   1.086       .  S
C125        C126   1.427       .  A
C126        C130   1.520       .  S
C127        C132   1.414       .  A
C127        C136   1.397       .  A
C128        F144   1.382       .  S
C128        F145   1.381       .  S
C128        F146   1.385       .  S
C130        F141   1.385       .  S
C130        F142   1.382       .  S
C130        F143   1.381       .  S
C132        C133   1.410       .  A
C132        C137   1.520       .  S
C133        C134   1.409       .  A
C133        H138   1.079       .  S
C134        C135   1.433       .  A
C135        C136   1.408       .  A
C135        C139   1.523       .  S
C136        H140   1.084       .  S
C137        F150   1.384       .  S
C137        F151   1.382       .  S
C137        F152   1.381       .  S
C139        F147   1.383       .  S
C139        F148   1.383       .  S
C139        F149   1.386       .  S
C153        C154   1.400   1_545  A
C153        C158   1.406   1_545  A
C153        H163   1.081       .  S
C154        C159   1.485   1_564  S
C154        C155   1.416   1_554  A
C155        C156   1.408   1_556  A
C155        C160   1.518       .  S
C156        C157   1.403       .  A
C156        H161   1.080       .  S
C157        C158   1.421       .  A
C158        C162   1.520   1_565  S
C159        C164   1.414   1_556  A
C159        C168   1.404       .  A
C160        F176   1.382       .  S
C160        F177   1.382       .  S
C160        F178   1.385       .  S
C162        F173   1.383   1_545  S
C162        F174   1.385       .  S
C162        F175   1.382       .  S
C164        C165   1.406   1_554  A
C164        C169   1.521   1_545  S
C165        C166   1.406       .  A
C165        H170   1.082   1_556  S
C166        C167   1.414       .  A
C167        C168   1.411       .  A
C167        C171   1.512       .  S
C168        H172   1.083       .  S
C169        F182   1.384       .  S
C169        F183   1.382   1_565  S
C169        F184   1.383       .  S
C171        F179   1.385       .  S
C171        F180   1.380       .  S
C171        F181   1.383       .  S
C185        C658   1.408   1_545  A
C185        C662   1.410       .  A
C185        H195   1.082       .  S
C186        C663   1.485   1_556  S
C186        C187   1.414       .  A
C186        C657   1.408   1_465  A
C187        C188   1.402       .  A
C187        C192   1.520       .  S
C188        C189   1.404   1_565  A
C188        H193   1.083       .  S
C189        C190   1.409       .  A
C190        C657   1.412   1_455  A
C190        C666   1.513   1_455  S
C191        C658   1.478   1_554  S
C191        C196   1.420       .  A
C191        C200   1.397   1_554  A
C192        F208   1.382       .  S
C192        F209   1.382   1_556  S
C192        F210   1.385       .  S
C194        C662   1.512       .  S
C194        F205   1.383       .  S
C194        F206   1.384       .  S
C194        F679   1.383       .  S
C196        C197   1.405       .  A
C196        C201   1.517   1_565  S
C197        C198   1.401       .  A
C197        H202   1.090       .  S
C198        C199   1.418       .  A
C199        C200   1.399   1_554  A
C199        C203   1.514   1_554  S
C200        H676   1.079       .  S
C201        F214   1.384       .  S
C201        F215   1.383       .  S
C201        F688   1.381       .  S
C203        F211   1.382       .  S
C203        F212   1.379   1_556  S
C203        F685   1.383       .  S
H204        C672   1.091       .  S
F207        C666   1.383       .  S
F213        C675   1.383       .  S
F216        C673   1.380       .  S
C217        C218   1.399       .  A
C217        C222   1.411       .  A
C217        H227   1.080       .  S
C218        C695   1.492       .  S
C218        C219   1.415       .  A
C219        C220   1.409       .  A
C219        C696   1.518       .  S
C220        C221   1.409       .  A
C220        H225   1.080       .  S
C221        C222   1.431       .  A
C222        C226   1.522       .  S
C223        C690   1.486       .  S
C223        C228   1.417       .  A
C223        C232   1.395       .  A
C224        C691   1.519       .  S
C224        F240   1.383       .  S
C224        F241   1.382       .  S
C224        F242   1.384       .  S
C226        F237   1.382   1_565  S
C226        F238   1.385       .  S
C226        F239   1.384   1_565  S
C228        C229   1.414       .  A
C228        C233   1.518       .  S
C229        C230   1.407       .  A
C229        H234   1.082       .  S
C230        C231   1.427       .  A
C231        C232   1.402       .  A
C231        C235   1.521       .  S
C232        H708   1.083       .  S
C233        F246   1.384       .  S
C233        F248   1.382       .  S
C233        F719   1.384       .  S
C235        F243   1.383       .  S
C235        F244   1.382       .  S
C235        F245   1.385       .  S
H236        C704   1.083       .  S
F247        C705   1.383       .  S
C249        C250   1.404       .  A
C249        C254   1.412       .  A
C249        H259   1.081       .  S
C250        C727   1.491       .  S
C250        C251   1.416       .  A
C251        C252   1.406       .  A
C251        C256   1.519       .  S
C252        C253   1.404       .  A
C252        H257   1.082       .  S
C253        C254   1.421       .  A
C254        C258   1.517       .  S
C255        C722   1.488       .  S
C255        C260   1.419   1_655  A
C255        C736   1.391       .  A
C256        F272   1.382       .  S
C256        F274   1.381       .  S
C256        F745   1.383       .  S
C258        F269   1.383       .  S
C258        F270   1.385       .  S
C258        F271   1.383       .  S
C260        C261   1.415       .  A
C260        C265   1.518       .  S
C261        C262   1.407       .  A
C261        H266   1.082       .  S
C262        C263   1.432       .  A
C263        C736   1.401   1_455  A
C263        C267   1.523       .  S
C264        C727   1.395       .  A
C264        C735   1.404       .  A
C264        H268   1.082       .  S
C265        F278   1.384       .  S
C265        F279   1.382       .  S
C265        F280   1.383       .  S
C267        F276   1.381   1_455  S
C267        F747   1.385   1_455  S
C267        F749   1.380       .  S
F273        C728   1.383   1_455  S
F275        C739   1.385       .  S
F277        C739   1.382       .  S
C281        C282   1.394       .  A
C281        C286   1.403       .  A
C281        H291   1.084       .  S
C282        C287   1.490       .  S
C282        C283   1.418       .  A
C283        C284   1.413       .  A
C283        C288   1.517       .  S
C284        C285   1.405       .  A
C284        H289   1.083       .  S
C285        C286   1.430       .  A
C286        C290   1.523       .  S
C287        C292   1.419       .  A
C287        C296   1.403       .  A
C288        F304   1.382       .  S
C288        F305   1.383       .  S
C288        F306   1.384       .  S
C290        F301   1.384       .  S
C290        F302   1.379       .  S
C290        F303   1.381       .  S
C292        C293   1.407       .  A
C292        C297   1.519       .  S
C293        C294   1.401       .  A
C293        H298   1.081       .  S
C294        C295   1.417       .  A
C295        C296   1.410       .  A
C295        C299   1.517       .  S
C296        H300   1.081       .  S
C297        F310   1.383       .  S
C297        F311   1.382       .  S
C297        F312   1.382       .  S
C299        F307   1.385       .  S
C299        F308   1.384       .  S
C299        F309   1.381       .  S
C313        C314   1.401       .  A
C313        C318   1.409       .  A
C313        H323   1.083       .  S
C314        C319   1.481       .  S
C314        C315   1.411       .  A
C315        C316   1.403       .  A
C315        C320   1.521       .  S
C316        C317   1.411       .  A
C316        H321   1.080       .  S
C317        C318   1.427       .  A
C318        C322   1.522       .  S
C319        C324   1.415       .  A
C319        C328   1.399       .  A
C320        F336   1.382       .  S
C320        F337   1.382       .  S
C320        F338   1.385       .  S
C322        F333   1.384       .  S
C322        F334   1.385       .  S
C322        F335   1.383       .  S
C324        C325   1.407       .  A
C324        C329   1.518       .  S
C325        C326   1.403       .  A
C325        H330   1.084       .  S
C326        C327   1.419       .  A
C327        C328   1.404       .  A
C327        C331   1.518       .  S
C328        H332   1.085       .  S
C329        F342   1.381       .  S
C329        F343   1.382       .  S
C329        F344   1.381       .  S
C331        F339   1.382   1_554  S
C331        F340   1.383       .  S
C331        F341   1.385       .  S
C345        C346   1.403       .  A
C345        C350   1.408       .  A
C345        H355   1.065       .  S
C346        C823   1.494       .  S
C346        C347   1.418       .  A
C347        C348   1.414       .  A
C347        C824   1.519       .  S
C348        C349   1.408       .  A
C348        H353   1.081       .  S
C349        C350   1.419       .  A
C350        C354   1.517       .  S
C351        C818   1.495   1_455  S
C351        C360   1.403       .  A
C351        C828   1.415   1_455  A
C352        C819   1.520       .  S
C352        F368   1.381   1_655  S
C352        F369   1.383       .  S
C352        F370   1.384       .  S
C354        F365   1.385       .  S
C354        F366   1.381   1_545  S
C354        F367   1.385   1_545  S
C356        C823   1.413       .  A
C356        C829   1.405       .  A
C356        C361   1.521       .  S
C357        C358   1.412       .  A
C357        C828   1.406   1_455  A
C357        H362   1.082       .  S
C358        C359   1.425       .  A
C359        C360   1.412       .  A
C359        C363   1.520       .  S
C360        H364   1.083       .  S
C361        F374   1.384       .  S
C361        F375   1.381       .  S
C361        F376   1.382       .  S
C363        F371   1.384       .  S
C363        F372   1.383       .  S
C363        F373   1.383       .  S
C377        C850   1.400       .  A
C377        C854   1.409       .  A
C377        H387   1.082   1_655  S
C378        C855   1.484       .  S
C378        C379   1.418       .  A
C378        C849   1.399       .  A
C379        C380   1.410       .  A
C379        C384   1.521       .  S
C380        C381   1.404       .  A
C380        H385   1.083       .  S
C381        C382   1.418       .  A
C382        C849   1.405       .  A
C382        C386   1.516       .  S
C383        C850   1.489   1_455  S
C383        C388   1.415       .  A
C383        C392   1.410       .  A
C384        F400   1.382       .  S
C384        F401   1.381       .  S
C384        F402   1.385       .  S
C386        F399   1.383       .  S
C386        F869   1.385       .  S
C386        F870   1.381       .  S
C388        C389   1.398       .  A
C388        C393   1.520   1_455  S
C389        C390   1.407       .  A
C389        H394   1.084       .  S
C390        C391   1.418       .  A
C391        C392   1.417       .  A
C391        C395   1.519       .  S
C392        H396   1.083       .  S
C393        F406   1.383       .  S
C393        F407   1.384       .  S
C393        F408   1.380       .  S
C395        F403   1.385       .  S
C395        F404   1.383       .  S
C395        F405   1.380       .  S
F397        C858   1.385       .  S
F398        C858   1.382       .  S
C409        C410   1.409       .  A
C409        C414   1.416       .  A
C409        H419   1.079       .  S
C410        C415   1.486       .  S
C410        C411   1.410       .  A
C411        C412   1.399       .  A
C411        C416   1.522       .  S
C412        C413   1.410       .  A
C412        H417   1.080       .  S
C413        C414   1.417       .  A
C414        C418   1.516       .  S
C415        C420   1.413       .  A
C415        C424   1.404       .  A
C416        F432   1.382       .  S
C416        F433   1.383       .  S
C416        F434   1.385       .  S
C418        F429   1.383       .  S
C418        F430   1.385       .  S
C418        F431   1.383       .  S
C420        C421   1.406       .  A
C420        C425   1.520       .  S
C421        C422   1.408       .  A
C421        H426   1.082       .  S
C422        C423   1.418       .  A
C423        C424   1.411       .  A
C423        C427   1.517       .  S
C424        H428   1.082       .  S
C425        F438   1.384       .  S
C425        F439   1.382       .  S
C425        F440   1.383       .  S
C427        F435   1.382       .  S
C427        F436   1.382       .  S
C427        F437   1.385       .  S
C441        C442   1.393       .  A
C441        C446   1.391       .  A
C441        H451   1.086       .  S
C442        C919   1.473   1_455  S
C442        C443   1.418       .  A
C443        C444   1.410       .  A
C443        C920   1.517   1_455  S
C444        C445   1.401       .  A
C444        H449   1.085       .  S
C445        C446   1.419       .  A
C446        C450   1.515       .  S
C447        C914   1.471       .  S
C447        C456   1.393       .  A
C447        C924   1.416       .  A
C448        C915   1.516       .  S
C448        F464   1.383       .  S
C448        F466   1.384       .  S
C448        F937   1.378       .  S
C450        F461   1.380       .  S
C450        F462   1.385       .  S
C450        F463   1.379       .  S
C452        C919   1.416   1_455  A
C452        C925   1.414   1_455  A
C452        C457   1.517       .  S
C453        C454   1.408       .  A
C453        C924   1.412       .  A
C453        H930   1.082       .  S
C454        C455   1.421       .  A
C455        C456   1.391       .  A
C455        C459   1.517       .  S
C456        H460   1.085       .  S
C457        F470   1.383       .  S
C457        F471   1.383       .  S
C457        F472   1.380       .  S
H458        C925   1.082       .  S
C459        F467   1.384       .  S
C459        F468   1.382       .  S
C459        F469   1.381       .  S
F465        C920   1.380       .  S
O473        C488   1.270       .  A
O473       Al481   1.942       .  S
C474        O484   1.275       .  A
C474        O475   1.256       .  A
C474        C766   1.482       .  S
O475       Al477   1.865       .  S
O476        C478   1.271       .  A
O476       Al477   1.966       .  S
Al477       O485   1.979       .  S
Al477       O487   1.881       .  S
Al477       O486   1.774       .  S
C478        O491   1.260       .  A
C478        C830   1.503       .  S
O479        C489   1.270       .  A
O479       Al481   1.966       .  S
O480        C493   1.271       .  A
O480       Al490   1.968       .  S
Al481       O494   1.872       .  S
Al481       O491   1.880       .  S
Al481       O486   1.761       .  S
O482        C489   1.249       .  A
O482       Al490   1.848       .  S
O483        C492   1.254       .  A
O483       Al490   1.865       .  S
O484       Al490   1.961       .  S
O485        C492   1.272       .  A
O486       Al490   1.759       .  S
O487        C488   1.266       .  A
C488        C789   1.493       .  S
C489        C917   1.467       .  S
C492        C885   1.494       .  S
C493        O494   1.256       .  A
C493        C862   1.493       .  S
O495        C510   1.255       .  A
O495       Al503   1.875       .  S
C496        O506   1.254       .  A
C496        O497   1.270       .  A
C496        C798   1.492   1_556  S
O497       Al499   1.955       .  S
O498        C500   1.251       .  A
O498       Al499   1.848       .  S
Al499       O507   1.864       .  S
Al499       O509   1.975       .  S
Al499       O508   1.769       .  S
C500        O513   1.275       .  A
C500        C661   1.469       .  S
O501        C511   1.253       .  A
O501       Al503   1.870       .  S
O502        C515   1.259       .  A
O502       Al512   1.885       .  S
Al503       O516   1.985       .  S
Al503       O513   1.989       .  S
Al503       O508   1.761       .  S
O504        C511   1.274       .  A
O504       Al512   1.977       .  S
O505        C514   1.278       .  A
O505       Al512   1.984       .  S
O506       Al512   1.870       .  S
O507        C514   1.258       .  A
O508       Al512   1.762       .  S
O509        C510   1.274       .  A
C510        C693   1.502   1_545  S
C511        C734   1.494       .  S
C514        C638   1.485       .  S
C515        O516   1.276       .  A
C515        C757   1.501       .  S
O517        C532   1.254       .  A
O517       Al525   1.886       .  S
C518        O528   1.250       .  A
C518        O519   1.268       .  A
C518        C606   1.494       .  S
O519       Al521   1.953       .  S
O520        C522   1.256       .  A
O520       Al521   1.837       .  S
Al521       O529   1.853       .  S
Al521       O531   1.929       .  S
Al521       O530   1.779       .  S
C522        O535   1.276       .  A
C522        C926   1.478       .  S
O523        C533   1.253       .  A
O523       Al525   1.869       .  S
O524        C537   1.253       .  A
O524       Al534   1.866       .  S
Al525       O538   1.955       .  S
Al525       O535   1.974       .  S
Al525       O530   1.772       .  S
O526        C533   1.272       .  A
O526       Al534   1.968       .  S
O527        C536   1.275       .  A
O527       Al534   1.972       .  S
O528       Al534   1.861       .  S
O529        C536   1.256       .  A
O530       Al534   1.773       .  S
O531        C532   1.263       .  A
C532        C725   1.480       .  S
C533        C702   1.501       .  S
C536        C894   1.477       .  S
C537        O538   1.273       .  A
C537        C565   1.496       .  S
O539        C554   1.270       .  A
O539       Al547   1.954       .  S
C540        O550   1.274       .  A
C540        O541   1.255       .  A
C540        C574   1.505   1_554  S
O541       Al543   1.874       .  S
O542        C544   1.273       .  A
O542       Al543   1.975       .  S
Al543       O551   1.975       .  S
Al543       O553   1.885       .  S
Al543       O552   1.773       .  S
C544        O557   1.255       .  A
C544        C853   1.489       .  S
O545        C555   1.270       .  A
O545       Al547   1.952       .  S
O546        C559   1.273       .  A
O546       Al556   1.966       .  S
Al547       O560   1.880       .  S
Al547       O557   1.877       .  S
Al547       O552   1.771       .  S
O548        C555   1.253       .  A
O548       Al556   1.855       .  S
O549        C558   1.255       .  A
O549       Al556   1.870       .  S
O550       Al556   1.967       .  S
O551        C558   1.275       .  A
O552       Al556   1.776       .  S
O553        C554   1.262       .  A
C554        C597   1.502       .  S
C555        C670   1.472       .  S
C558        C629   1.490       .  S
C559        O560   1.256       .  A
C559        C821   1.498   1_565  S
C561        C562   1.399       .  A
C561        C566   1.411       .  A
C561        H571   1.084       .  S
C562        C567   1.495       .  S
C562        C563   1.417       .  A
C563        C564   1.407       .  A
C563        C568   1.512       .  S
C564        C565   1.403       .  A
C564        H569   1.083       .  S
C565        C566   1.430       .  A
C566        C570   1.522       .  S
C567        C572   1.416       .  A
C567        C576   1.397       .  A
C568        F584   1.382       .  S
C568        F585   1.374       .  S
C568        F586   1.385       .  S
C570        F581   1.382       .  S
C570        F582   1.385       .  S
C570        F583   1.384       .  S
C572        C573   1.413       .  A
C572        C577   1.518       .  S
C573        C574   1.409       .  A
C573        H578   1.082       .  S
C574        C575   1.432       .  A
C575        C576   1.410       .  A
C575        C579   1.522       .  S
C576        H580   1.083       .  S
C577        F590   1.384       .  S
C577        F591   1.383       .  S
C577        F592   1.382       .  S
C579        F587   1.385       .  S
C579        F588   1.384   1_556  S
C579        F589   1.382   1_556  S
C593        C594   1.400       .  A
C593        C598   1.410       .  A
C593        H603   1.086       .  S
C594        C599   1.485       .  S
C594        C595   1.410       .  A
C595        C596   1.407       .  A
C595        C600   1.521       .  S
C596        C597   1.413       .  A
C596        H601   1.086       .  S
C597        C598   1.427       .  A
C598        C602   1.519       .  S
C599        C604   1.415       .  A
C599        C608   1.396       .  A
C600        F616   1.383       .  S
C600        F617   1.382       .  S
C600        F618   1.384       .  S
C602        F613   1.385       .  S
C602        F614   1.382       .  S
C602        F615   1.381       .  S
C604        C605   1.410       .  A
C604        C609   1.520       .  S
C605        C606   1.407       .  A
C605        H610   1.080       .  S
C606        C607   1.429       .  A
C607        C608   1.405       .  A
C607        C611   1.523       .  S
C608        H612   1.082       .  S
C609        F622   1.385       .  S
C609        F623   1.382       .  S
C609        F624   1.382       .  S
C611        F619   1.384       .  S
C611        F620   1.384       .  S
C611        F621   1.384       .  S
C625        C626   1.402   1_545  A
C625        C630   1.410   1_545  A
C625        H635   1.082       .  S
C626        C631   1.496   1_564  S
C626        C627   1.419   1_554  A
C627        C628   1.413   1_556  A
C627        C632   1.518       .  S
C628        C629   1.404       .  A
C628        H633   1.081   1_554  S
C629        C630   1.423       .  A
C630        C634   1.520   1_565  S
C631        C636   1.416   1_556  A
C631        C640   1.410       .  A
C632        F648   1.382       .  S
C632        F649   1.382       .  S
C632        F650   1.385       .  S
C634        F645   1.383   1_545  S
C634        F646   1.385       .  S
C634        F647   1.383       .  S
C636        C637   1.406   1_554  A
C636        C641   1.520   1_545  S
C637        C638   1.405       .  A
C637        H642   1.083   1_556  S
C638        C639   1.413       .  A
C639        C640   1.417       .  A
C639        C643   1.515       .  S
C640        H644   1.082       .  S
C641        F654   1.385       .  S
C641        F655   1.382       .  S
C641        F656   1.382       .  S
C643        F651   1.384       .  S
C643        F652   1.382       .  S
C643        F653   1.384       .  S
C657        H667   1.082       .  S
C658        C659   1.413       .  A
C659        C660   1.401       .  A
C659        C664   1.521   1_556  S
C660        C661   1.406   1_565  A
C660        H665   1.085       .  S
C661        C662   1.406       .  A
C663        C668   1.419       .  A
C663        C672   1.394   1_454  A
C664        F680   1.382   1_554  S
C664        F681   1.383       .  S
C664        F682   1.385   1_554  S
C666        F677   1.383   1_655  S
C666        F678   1.385       .  S
C668        C669   1.407   1_455  A
C668        C673   1.512   1_565  S
C669        C670   1.399       .  A
C669        H674   1.087       .  S
C670        C671   1.419       .  A
C671        C672   1.400   1_554  A
C671        C675   1.511   1_554  S
C673        F686   1.385       .  S
C673        F687   1.382       .  S
C675        F683   1.382       .  S
C675        F684   1.378   1_556  S
C689        C690   1.394       .  A
C689        C694   1.406       .  A
C689        H699   1.084       .  S
C690        C691   1.414       .  A
C691        C692   1.412       .  A
C692        C693   1.412       .  A
C692        H697   1.082       .  S
C693        C694   1.432       .  A
C694        C698   1.521   1_565  S
C695        C700   1.417   1_455  A
C695        C704   1.396       .  A
C696        F712   1.383       .  S
C696        F713   1.381       .  S
C696        F714   1.385       .  S
C698        F709   1.382       .  S
C698        F710   1.385   1_545  S
C698        F711   1.383       .  S
C700        C701   1.416       .  A
C700        C705   1.518       .  S
C701        C702   1.408       .  A
C701        H706   1.081       .  S
C702        C703   1.430       .  A
C703        C704   1.407   1_655  A
C703        C707   1.519       .  S
C705        F718   1.384       .  S
C705        F720   1.382       .  S
C707        F715   1.379       .  S
C707        F716   1.382   1_655  S
C707        F717   1.385   1_655  S
C721        C722   1.403       .  A
C721        C726   1.408       .  A
C721        H731   1.081       .  S
C722        C723   1.419       .  A
C723        C724   1.404       .  A
C723        C728   1.522       .  S
C724        C725   1.404       .  A
C724        H729   1.081       .  S
C725        C726   1.416       .  A
C726        C730   1.516       .  S
C727        C732   1.419       .  A
C728        F744   1.381       .  S
C728        F746   1.383       .  S
C730        F741   1.383       .  S
C730        F742   1.384       .  S
C730        F743   1.384       .  S
C732        C733   1.414       .  A
C732        C737   1.518       .  S
C733        C734   1.406       .  A
C733        H738   1.082       .  S
C734        C735   1.431       .  A
C735        C739   1.524       .  S
C736        H740   1.082       .  S
C737        F750   1.384       .  S
C737        F751   1.381       .  S
C737        F752   1.383       .  S
C739        F748   1.382       .  S
C753        C754   1.395       .  A
C753        C758   1.406       .  A
C753        H763   1.081       .  S
C754        C759   1.498       .  S
C754        C755   1.422       .  A
C755        C756   1.418       .  A
C755        C760   1.518       .  S
C756        C757   1.407       .  A
C756        H761   1.083       .  S
C757        C758   1.429       .  A
C758        C762   1.520       .  S
C759        C764   1.424       .  A
C759        C768   1.404       .  A
C760        F776   1.382       .  S
C760        F777   1.383       .  S
C760        F778   1.384       .  S
C762        F773   1.385       .  S
C762        F774   1.381       .  S
C762        F775   1.380       .  S
C764        C765   1.407       .  A
C764        C769   1.520       .  S
C765        C766   1.399       .  A
C765        H770   1.087       .  S
C766        C767   1.420       .  A
C767        C768   1.410       .  A
C767        C771   1.519       .  S
C768        H772   1.086       .  S
C769        F782   1.385       .  S
C769        F783   1.381       .  S
C769        F784   1.382       .  S
C771        F779   1.384       .  S
C771        F780   1.384       .  S
C771        F781   1.382       .  S
C785        C786   1.400       .  A
C785        C790   1.409       .  A
C785        H795   1.082       .  S
C786        C791   1.482       .  S
C786        C787   1.412       .  A
C787        C788   1.401       .  A
C787        C792   1.521       .  S
C788        C789   1.409       .  A
C788        H793   1.081       .  S
C789        C790   1.428       .  A
C790        C794   1.522       .  S
C791        C796   1.414       .  A
C791        C800   1.395       .  A
C792        F808   1.381       .  S
C792        F809   1.382       .  S
C792        F810   1.385       .  S
C794        F805   1.383       .  S
C794        F806   1.385       .  S
C794        F807   1.383       .  S
C796        C797   1.411       .  A
C796        C801   1.520       .  S
C797        C798   1.410       .  A
C797        H802   1.083       .  S
C798        C799   1.427       .  A
C799        C800   1.402       .  A
C799        C803   1.522       .  S
C800        H804   1.085       .  S
C801        F814   1.384       .  S
C801        F815   1.383       .  S
C801        F816   1.383       .  S
C803        F811   1.383   1_554  S
C803        F812   1.383       .  S
C803        F813   1.385       .  S
C817        C818   1.402       .  A
C817        C822   1.411       .  A
C817        H827   1.064       .  S
C818        C819   1.419       .  A
C819        C820   1.413       .  A
C820        C821   1.408       .  A
C820        H825   1.082       .  S
C821        C822   1.425       .  A
C822        C826   1.519       .  S
C823        C832   1.405       .  A
C824        F840   1.382       .  S
C824        F841   1.383       .  S
C824        F842   1.384       .  S
C826        F837   1.385       .  S
C826        F838   1.380   1_545  S
C826        F839   1.383   1_545  S
C828        C833   1.521       .  S
C829        C830   1.412       .  A
C829        H834   1.083       .  S
C830        C831   1.425       .  A
C831        C832   1.415       .  A
C831        C835   1.519       .  S
C832        H836   1.084       .  S
C833        F846   1.386       .  S
C833        F847   1.381       .  S
C833        F848   1.382       .  S
C835        F843   1.385       .  S
C835        F844   1.384       .  S
C835        F845   1.383       .  S
C849        H859   1.084       .  S
C850        C851   1.417       .  A
C851        C852   1.413       .  A
C851        C856   1.518       .  S
C852        C853   1.405       .  A
C852        H857   1.081       .  S
C853        C854   1.422       .  A
C854        C858   1.516       .  S
C855        C860   1.409       .  A
C855        C864   1.407       .  A
C856        F872   1.383   1_655  S
C856        F873   1.382       .  S
C856        F874   1.385       .  S
C858        F871   1.382       .  S
C860        C861   1.402       .  A
C860        C865   1.522       .  S
C861        C862   1.412       .  A
C861        H866   1.082       .  S
C862        C863   1.418       .  A
C863        C864   1.414       .  A
C863        C867   1.517       .  S
C864        H868   1.083       .  S
C865        F878   1.384       .  S
C865        F879   1.383       .  S
C865        F880   1.381       .  S
C867        F875   1.385       .  S
C867        F876   1.384       .  S
C867        F877   1.380       .  S
C881        C882   1.407       .  A
C881        C886   1.416       .  A
C881        H891   1.081       .  S
C882        C887   1.487       .  S
C882        C883   1.411       .  A
C883        C884   1.403       .  A
C883        C888   1.523       .  S
C884        C885   1.412       .  A
C884        H889   1.079       .  S
C885        C886   1.418       .  A
C886        C890   1.515       .  S
C887        C892   1.415       .  A
C887        C896   1.405       .  A
C888        F904   1.382       .  S
C888        F905   1.383       .  S
C888        F906   1.384       .  S
C890        F901   1.383       .  S
C890        F902   1.384       .  S
C890        F903   1.383       .  S
C892        C893   1.404       .  A
C892        C897   1.519       .  S
C893        C894   1.405       .  A
C893        H898   1.084       .  S
C894        C895   1.416       .  A
C895        C896   1.410       .  A
C895        C899   1.517       .  S
C896        H900   1.083       .  S
C897        F910   1.385       .  S
C897        F911   1.382       .  S
C897        F912   1.382       .  S
C899        F907   1.383       .  S
C899        F908   1.383       .  S
C899        F909   1.385       .  S
C913        C914   1.392       .  A
C913        C918   1.391       .  A
C913        H923   1.087       .  S
C914        C915   1.419       .  A
C915        C916   1.410       .  A
C916        C917   1.400       .  A
C916        H921   1.085       .  S
C917        C918   1.419       .  A
C918        C922   1.515       .  S
C919        C928   1.393       .  A
C920        F936   1.383       .  S
C920        F938   1.385       .  S
C922        F933   1.378       .  S
C922        F934   1.385       .  S
C922        F935   1.380       .  S
C924        C929   1.517       .  S
C925        C926   1.409       .  A
C926        C927   1.421       .  A
C927        C928   1.392       .  A
C927        C931   1.518       .  S
C928        H932   1.085       .  S
C929        F942   1.384       .  S
C929        F943   1.383       .  S
C929        F944   1.379       .  S
C931        F939   1.384       .  S
C931        F940   1.379       .  S
C931        F941   1.380       .  S
