geometry optimzed in LAMMPS
_audit_creation_date              2020-12-01 
_audit_creation_method            'lammps2cif' 
_symmetry_space_group_name_H-M    'P1' 
_symmetry_Int_Tables_number       1 
_symmetry_cell_setting            triclinic 
loop_ 
_symmetry_equiv_pos_as_xyz 
  x,y,z 
_cell_length_a                    67.2583382 
_cell_length_b                    27.027434980138214 
_cell_length_c                    33.523518435667505 
_cell_angle_alpha                 89.98942293675069 
_cell_angle_beta                  89.44864532723498 
_cell_angle_gamma                 89.9673059758066 
loop_ 
_atom_site_label 
_atom_site_type_symbol 
_atom_site_fract_x 
_atom_site_fract_y 
_atom_site_fract_z 
_atom_site_charge 
O1          O  0.80274090  0.78724338  0.77635065    -0.86300
O2          O  0.78021723  0.71340662  0.74369229    -0.83400
C3          C  0.76254528  0.72485462  0.75384995     0.97100
O4          O  0.75464409  0.76334213  0.73970051    -0.83400
O5          O  0.75058824  0.85622727  0.70414209    -0.86000
C6          C  0.75728897  0.88684235  0.72914979     1.01700
O7          O  0.77409389  0.87982344  0.74340657    -0.78800
O8          O  0.81250419  0.85868330  0.75376516    -0.79000
C9          C  0.80957843  0.82973499  0.78294038     1.01600
O10         O  0.82823356  0.79198046  0.70573888    -0.86300
O11         O  0.80265445  0.72265902  0.67071575    -0.83400
C12         C  0.78669794  0.70551085  0.65678798     0.97200
O13         O  0.77002682  0.72404300  0.66658618    -0.83400
O14         O  0.76860004  0.81747391  0.63352369    -0.86000
C15         C  0.77122359  0.86333544  0.62917044     1.01600
O16         O  0.77925587  0.88769111  0.65719355    -0.78800
O17         O  0.81701504  0.85211601  0.66831190    -0.79000
C18         C  0.83137477  0.82733309  0.68121857     1.01600
Cr19       Cr  0.80253871  0.75699311  0.72258468     1.93700
Cr20       Cr  0.76269224  0.79083660  0.68740097     1.93200
Cr21       Cr  0.79512896  0.86543841  0.70534020     1.39100
O22         O  0.78696120  0.80395591  0.70414298    -1.24100
O23         O  0.93640516  0.94466508  0.77780465    -0.86300
O24         O  0.96087379  0.01768630  0.74884400    -0.83400
C25         C  0.97748534  0.00307517  0.76231301     0.97100
O26         O  0.98566703  0.96496234  0.74780499    -0.83400
O27         O  0.99019622  0.87353199  0.70940757    -0.86000
C28         C  0.98261148  0.84190653  0.73291481     1.01700
O29         O  0.96522173  0.84741783  0.74524254    -0.78800
O30         O  0.92717303  0.87355858  0.75376494    -0.79000
C31         C  0.92951155  0.90184926  0.78339818     1.01600
O32         O  0.91323909  0.94318432  0.70577247    -0.86300
O33         O  0.94080685  0.01132223  0.67340924    -0.83400
C34         C  0.95730470  0.02887177  0.66179174     0.97200
O35         O  0.97343009  0.00903348  0.67305612    -0.83400
O36         O  0.97534015  0.91586308  0.63807922    -0.86000
C37         C  0.97157974  0.87061475  0.63209614     1.01600
O38         O  0.96253561  0.84593247  0.65892723    -0.78800
O39         O  0.92495719  0.88371299  0.66807362    -0.79000
C40         C  0.91041857  0.90813791  0.68103375     1.01600
Cr41       Cr  0.93879867  0.97599881  0.72483225     1.93700
Cr42       Cr  0.97939020  0.94043764  0.69336708     1.93200
Cr43       Cr  0.94559617  0.86702689  0.70629164     1.39100
O44         O  0.95448665  0.92811937  0.70735462    -1.24100
O45         O  0.80486792  0.94615601  0.95190699    -0.86300
O46         O  0.78147276  0.01838026  0.98479896    -0.83400
C47         C  0.76409140  0.00608831  0.97406098     0.97100
O48         O  0.75610660  0.96769770  0.98850750    -0.83400
O49         O  0.75265144  0.87372112  0.02255840    -0.86000
C50         C  0.75963636  0.84296152  0.99751323     1.01700
O51         O  0.77683767  0.84896206  0.98401382    -0.78800
O52         O  0.81508680  0.87515385  0.97434376    -0.79000
C53         C  0.81179362  0.90370931  0.94519015     1.01600
O54         O  0.82956392  0.94193486  0.02301449    -0.86300
O55         O  0.80310909  0.00928502  0.05801624    -0.83400
C56         C  0.78697980  0.02585497  0.07223792     0.97200
O57         O  0.77043275  0.00684998  0.06266699    -0.83400
O58         O  0.76953457  0.91222832  0.09420401    -0.86000
C59         C  0.77280816  0.86652675  0.09819447     1.01600
O60         O  0.78083680  0.84283977  0.06963719    -0.78800
O61         O  0.81807118  0.88160206  0.06016953    -0.79000
C62         C  0.83244786  0.90723943  0.04810980     1.01600
Cr63       Cr  0.80382499  0.97566418  0.00588453     1.93700
Cr64       Cr  0.76389312  0.93959833  0.04059254     1.93200
Cr65       Cr  0.79712740  0.86648253  0.02231376     1.39100
O66         O  0.78833712  0.92764888  0.02355194    -1.24100
O67         O  0.93770020  0.79468800  0.95216066    -0.86300
O68         O  0.96145215  0.72070318  0.98120363    -0.83400
C69         C  0.97855197  0.73383175  0.96864617     0.97100
O70         O  0.98700528  0.77065953  0.98404556    -0.83400
O71         O  0.99155842  0.86266927  0.01941248    -0.86000
C72         C  0.98434614  0.89400358  0.99552947     1.01700
O73         O  0.96700438  0.88817668  0.98337782    -0.78800
O74         O  0.92828735  0.86503258  0.97736632    -0.79000
C75         C  0.93075093  0.83753216  0.94731380     1.01600
O76         O  0.91430517  0.79708012  0.02562488    -0.86300
O77         O  0.94079692  0.72792460  0.05668508    -0.83400
C78         C  0.95698295  0.71061820  0.06937668     0.97200
O79         O  0.97348269  0.72951896  0.05870126    -0.83400
O80         O  0.97612213  0.82433235  0.09213461    -0.86000
C81         C  0.97321845  0.87031678  0.09626204     1.01600
O82         O  0.96403830  0.89380431  0.06931402    -0.78800
O83         O  0.92624877  0.85676112  0.06265993    -0.79000
C84         C  0.91169503  0.83183638  0.05087457     1.01600
Cr85       Cr  0.93957934  0.76326965  0.00545023     1.93700
Cr86       Cr  0.98020537  0.79716072  0.03738917     1.93200
Cr87       Cr  0.94700730  0.87161273  0.02340045     1.39100
O88         O  0.95548492  0.81023211  0.02305615    -1.24100
O89         O  0.07873938  0.54633906  0.77029501    -0.86300
O90         O  0.05248043  0.47727913  0.80389295    -0.83400
C91         C  0.03641446  0.45970099  0.81743546     0.97100
O92         O  0.01980256  0.47813651  0.80729538    -0.83400
O93         O  0.01708337  0.57222616  0.84021066    -0.86000
C94         C  0.01940924  0.61819968  0.84463774     1.01700
O95         O  0.02881504  0.64230607  0.81790732    -0.78800
O96         O  0.06701221  0.60519778  0.80861149    -0.79000
C97         C  0.08161455  0.58082060  0.79558115     1.01600
O98         O  0.05432818  0.54294184  0.69929017    -0.86300
O99         O  0.03135775  0.46850588  0.72997291    -0.83400
C100        C  0.01396262  0.47980426  0.71860074     0.97200
O101        O  0.00570651  0.51795398  0.73287593    -0.83400
O102        O  0.00110459  0.61094377  0.76835368    -0.86000
C103        C  0.00830468  0.64262769  0.74434439     1.01600
O104        O  0.02579305  0.63836356  0.73206718    -0.78800
O105        O  0.06418499  0.61374351  0.72298553    -0.79000
C106        C  0.06165166  0.58512297  0.69353673     1.01600
Cr107      Cr  0.05322244  0.51201772  0.75240063     1.93700
Cr108      Cr  0.01271403  0.54540152  0.78586637     1.93200
Cr109      Cr  0.04586502  0.62046827  0.77074423     1.39100
O110        O  0.03732972  0.55897702  0.77047878    -1.24100
O111        O  0.16464179  0.69805083  0.78204767    -0.86300
O112        O  0.19103611  0.76420624  0.81907534    -0.83400
C113        C  0.20714932  0.78136192  0.83224255     0.97100
O114        O  0.22369828  0.76336801  0.82105076    -0.83400
O115        O  0.22463446  0.66899409  0.85420788    -0.86000
C116        C  0.22114633  0.62327534  0.85845672     1.01700
O117        O  0.21300237  0.59968605  0.83013244    -0.78800
O118        O  0.17524437  0.63618050  0.81831818    -0.79000
C119        C  0.16107538  0.66132446  0.80496960     1.01600
O120        O  0.19031986  0.70395507  0.71239472    -0.86300
O121        O  0.21356315  0.77531475  0.74544022    -0.83400
C122        C  0.23057560  0.76123215  0.73279760     0.97200
O123        O  0.23839220  0.72284132  0.74733150    -0.83400
O124        O  0.24204793  0.63008978  0.78354056    -0.86000
C125        C  0.23532294  0.59987022  0.75831096     1.01600
O126        O  0.21857795  0.60755316  0.74396638    -0.78800
O127        O  0.18040954  0.63164061  0.73306035    -0.79000
C128        C  0.18360648  0.66160058  0.70474859     1.01600
Cr129      Cr  0.19078296  0.73226065  0.76638640     1.93700
Cr130      Cr  0.23046456  0.69594774  0.80017171     1.93200
Cr131      Cr  0.19743029  0.62285181  0.78178344     1.39100
O132        O  0.20602139  0.68397597  0.78377730    -1.24100
O133        O  0.07722656  0.69090518  0.45245079    -0.86300
O134        O  0.05038128  0.75933950  0.41810784    -0.83400
C135        C  0.03408089  0.77710822  0.40616405     0.97100
O136        O  0.01765584  0.75953839  0.41874762    -0.83400
O137        O  0.01539950  0.66518898  0.38686153    -0.86000
C138        C  0.01818621  0.61945647  0.38213439     1.01700
O139        O  0.02712961  0.59509451  0.40912203    -0.78800
O140        O  0.06546662  0.62912661  0.41750729    -0.79000
C141        C  0.08003955  0.65369554  0.42961184     1.01600
O142        O  0.05342002  0.69746482  0.52479743    -0.86300
O143        O  0.02977925  0.77027885  0.49386306    -0.83400
C144        C  0.01248849  0.75871187  0.50658792     0.97200
O145        O  0.00443265  0.71963419  0.49401942    -0.83400
O146        O  0.99944992  0.62649922  0.45908551    -0.86000
C147        C  0.00661468  0.59566192  0.48354090     1.01600
O148        O  0.02384206  0.60159527  0.49585779    -0.78800
O149        O  0.06222480  0.62469636  0.50293607    -0.79000
C150        C  0.06020643  0.65492986  0.53155287     1.01600
Cr151      Cr  0.05174298  0.72634240  0.47079090     1.93700
Cr152      Cr  0.01103635  0.69209101  0.44095694     1.93200
Cr153      Cr  0.04402153  0.61697683  0.45597265     1.39100
O154        O  0.03577229  0.67875391  0.45497617    -1.24100
O155        O  0.16750406  0.54017150  0.44443291    -0.86300
O156        O  0.19778969  0.46953466  0.44972133    -0.83400
C157        C  0.20984529  0.46649494  0.42056173     0.97100
O158        O  0.22191922  0.50117417  0.41288185    -0.83400
O159        O  0.23305753  0.59942622  0.40613174    -0.86000
C160        C  0.22058331  0.62397345  0.38609814     1.01700
O161        O  0.20293489  0.62998104  0.39911663    -0.78800
O162        O  0.16993001  0.62006608  0.45124319    -0.79000
C163        C  0.16003869  0.58294809  0.44107763     1.01600
O164        O  0.17670127  0.57165706  0.52448935    -0.86300
O165        O  0.20690245  0.50340361  0.52845475    -0.83400
C166        C  0.22487170  0.49044085  0.52473281     0.97200
O167        O  0.23461529  0.50076900  0.49361582    -0.83400
O168        O  0.24196344  0.60112187  0.49039389    -0.86000
C169        C  0.23856111  0.64660044  0.48558362     1.01600
O170        O  0.22474875  0.66065475  0.46380126    -0.78800
O171        O  0.19498595  0.63833614  0.51642092    -0.79000
C172        C  0.18373884  0.61174454  0.53783399     1.01600
Cr173      Cr  0.18869319  0.52485535  0.48471327     1.93700
Cr174      Cr  0.23075391  0.55195001  0.45174771     1.93200
Cr175      Cr  0.19854063  0.63146004  0.45810812     1.39100
O176        O  0.20585749  0.56868728  0.46429126    -1.24100
O177        O  0.66609566  0.18657921  0.77487008    -0.86300
O178        O  0.69297031  0.25580984  0.80593920    -0.83400
C179        C  0.70929350  0.27405424  0.81701714     0.97100
O180        O  0.72570372  0.25420831  0.80690583    -0.83400
O181        O  0.72767352  0.15997705  0.84147941    -0.86000
C182        C  0.72436585  0.11428270  0.84653951     1.01700
O183        O  0.71574458  0.09014926  0.81928264    -0.78800
O184        O  0.67773825  0.12651527  0.81191436    -0.79000
C185        C  0.66323685  0.15145064  0.79969810     1.01600
O186        O  0.68964738  0.18843365  0.70192274    -0.86300
O187        O  0.71345248  0.26187822  0.73038412    -0.83400
C188        C  0.73050461  0.24868275  0.71755858     0.97200
O189        O  0.73895166  0.21168412  0.73281977    -0.83400
O190        O  0.74329514  0.11980497  0.76917232    -0.86000
C191        C  0.73595258  0.08890840  0.74509867     1.01600
O192        O  0.71866757  0.09520404  0.73301069    -0.78800
O193        O  0.68015103  0.11809140  0.72698196    -0.79000
C194        C  0.68281497  0.14553824  0.69702633     1.01600
Cr195      Cr  0.69150038  0.22005728  0.75487194     1.93700
Cr196      Cr  0.73209857  0.18592510  0.78648572     1.93200
Cr197      Cr  0.69874871  0.11175213  0.77304381     1.39100
O198        O  0.70730503  0.17305731  0.77250301    -1.24100
O199        O  0.58033659  0.04075424  0.77493898    -0.86300
O200        O  0.55338495  0.97267165  0.80684181    -0.83400
C201        C  0.53721373  0.95703595  0.82141913     0.97100
O202        O  0.52076639  0.97711717  0.81216594    -0.83400
O203        O  0.51874818  0.07243128  0.84502898    -0.86000
C204        C  0.52215810  0.11823933  0.84922643     1.01700
O205        O  0.53142393  0.14096030  0.82171638    -0.78800
O206        O  0.56912973  0.10001648  0.81374558    -0.79000
C207        C  0.58348046  0.07489500  0.80040535     1.01600
O208        O  0.55638003  0.04134876  0.70320252    -0.86300
O209        O  0.53226045  0.96699307  0.73292436    -0.83400
C210        C  0.51509120  0.98063225  0.72183613     0.97200
O211        O  0.50712523  0.01824232  0.73739136    -0.83400
O212        O  0.50370946  0.11050809  0.77209699    -0.86000
C213        C  0.51129222  0.14110330  0.74768739     1.01600
O214        O  0.52886220  0.13613082  0.73616234    -0.78800
O215        O  0.56723337  0.10993310  0.72880786    -0.79000
C216        C  0.56408318  0.08352218  0.69854267     1.01600
Cr217      Cr  0.55458964  0.00870693  0.75601821     1.93700
Cr218      Cr  0.51443919  0.04484050  0.79042793     1.93200
Cr219      Cr  0.54847085  0.11729848  0.77544436     1.39100
O220        O  0.53923643  0.05646198  0.77493870    -1.24100
O221        O  0.66708850  0.04350137  0.45718773    -0.86300
O222        O  0.69321956  0.97576998  0.42141117    -0.83400
C223        C  0.70923222  0.95839210  0.40738365     0.97100
O224        O  0.72592755  0.97683077  0.41654574    -0.83400
O225        O  0.72729262  0.07139826  0.38315882    -0.86000
C226        C  0.72408395  0.11724818  0.37955990     1.01700
O227        O  0.71554664  0.14056250  0.40777712    -0.78800
O228        O  0.67777623  0.10434776  0.41953349    -0.79000
C229        C  0.66359356  0.07868468  0.43281346     1.01600
O230        O  0.69248600  0.04001863  0.52696715    -0.86300
O231        O  0.71559769  0.96715959  0.49398928    -0.83400
C232        C  0.73286768  0.98026695  0.50496992     0.97200
O233        O  0.74093649  0.01768287  0.48930975    -0.83400
O234        O  0.74450609  0.10997465  0.45336164    -0.86000
C235        C  0.73773603  0.14026351  0.47878494     1.01600
O236        O  0.72076690  0.13335817  0.49315813    -0.78800
O237        O  0.68216557  0.11052601  0.50406613    -0.79000
C238        C  0.68534699  0.08240073  0.53329627     1.01600
Cr239      Cr  0.69303127  0.00969797  0.47328974     1.93700
Cr240      Cr  0.73286403  0.04437765  0.43697014     1.93200
Cr241      Cr  0.69973410  0.11806633  0.45577888     1.39100
O242        O  0.70837197  0.05696185  0.45424486    -1.24100
O243        O  0.58069452  0.19057410  0.45787193    -0.86300
O244        O  0.55377221  0.25847108  0.42584561    -0.83400
C245        C  0.53758693  0.27671800  0.41415602     0.97100
O246        O  0.52105116  0.25739733  0.42434877    -0.83400
O247        O  0.51887811  0.16317301  0.39120553    -0.86000
C248        C  0.52178884  0.11738069  0.38689912     1.01700
O249        O  0.53118171  0.09382327  0.41352751    -0.78800
O250        O  0.56910297  0.13053058  0.42076103    -0.79000
C251        C  0.58359317  0.15519276  0.43320218     1.01600
O252        O  0.55692991  0.19333583  0.53094115    -0.86300
O253        O  0.53281503  0.26705342  0.50109396    -0.83400
C254        C  0.51561448  0.25385192  0.51321834     0.97200
O255        O  0.50763978  0.21578269  0.49880033    -0.83400
O256        O  0.50360190  0.12277723  0.46365844    -0.86000
C257        C  0.51157672  0.09183047  0.48703440     1.01600
O258        O  0.52848609  0.09981941  0.50009453    -0.78800
O259        O  0.56685063  0.12327285  0.50590800    -0.79000
C260        C  0.56419267  0.15077519  0.53589825     1.01600
Cr261      Cr  0.55508735  0.22433257  0.47745711     1.93700
Cr262      Cr  0.51459172  0.18937852  0.44574025     1.93200
Cr263      Cr  0.54823463  0.11599857  0.45978436     1.39100
O264        O  0.53943178  0.17703834  0.45997056    -1.24100
O265        O  0.66484740  0.69150037  0.27301986    -0.86300
O266        O  0.69136716  0.75969068  0.30573949    -0.83400
C267        C  0.70751844  0.77644541  0.31898496     0.97100
O268        O  0.72405995  0.75769526  0.30849341    -0.83400
O269        O  0.72559629  0.66372846  0.34131682    -0.86000
C270        C  0.72277892  0.61787969  0.34551016     1.01700
O271        O  0.71416236  0.59381871  0.31813927    -0.78800
O272        O  0.67636128  0.63139979  0.31012801    -0.79000
C273        C  0.66190321  0.65652143  0.29802859     1.01600
O274        O  0.68916667  0.69471683  0.20055459    -0.86300
O275        O  0.71295603  0.76772915  0.23141219    -0.83400
C276        C  0.73047937  0.75538886  0.22069005     0.97200
O277        O  0.73817597  0.71662165  0.23448994    -0.83400
O278        O  0.74201964  0.62458003  0.26948741    -0.86000
C279        C  0.73499065  0.59414471  0.24461394     1.01600
O280        O  0.71770294  0.59944246  0.23212582    -0.78800
O281        O  0.67921038  0.62399268  0.22466256    -0.79000
C282        C  0.68185608  0.65244302  0.19509312     1.01600
Cr283      Cr  0.69053914  0.72523821  0.25411517     1.93700
Cr284      Cr  0.73067610  0.69018228  0.28717491     1.93200
Cr285      Cr  0.69746595  0.61645054  0.27153928     1.39100
O286        O  0.70611704  0.67769526  0.27174651    -1.24100
O287        O  0.57957370  0.54434374  0.27788718    -0.86300
O288        O  0.55257504  0.47552339  0.31026839    -0.83400
C289        C  0.53621051  0.45707818  0.32154858     0.97100
O290        O  0.51987047  0.47679525  0.31155637    -0.83400
O291        O  0.51772076  0.57048873  0.34635175    -0.86000
C292        C  0.52060796  0.61619845  0.35160133     1.01700
O293        O  0.52992187  0.64064997  0.32502085    -0.78800
O294        O  0.56785195  0.60353567  0.31598017    -0.79000
C295        C  0.58239947  0.57898042  0.30300842     1.01600
O296        O  0.55589220  0.54284219  0.20618147    -0.86300
O297        O  0.53214218  0.46872915  0.23575689    -0.83400
C298        C  0.51501495  0.48095338  0.22352476     0.97200
O299        O  0.50683330  0.51930357  0.23768014    -0.83400
O300        O  0.50215035  0.61125380  0.27509446    -0.86000
C301        C  0.50943742  0.64300564  0.25134420     1.01600
O302        O  0.52693676  0.63861806  0.23916216    -0.78800
O303        O  0.56541417  0.61339182  0.23075766    -0.79000
C304        C  0.56275335  0.58574435  0.20092926     1.01600
Cr305      Cr  0.55407722  0.51109994  0.25906548     1.93700
Cr306      Cr  0.51345206  0.54505824  0.29145477     1.93200
Cr307      Cr  0.54690958  0.61962783  0.27795041     1.39100
O308        O  0.53823445  0.55828415  0.27696578    -1.24100
O309        O  0.66418256  0.54060585  0.95634704    -0.86300
O310        O  0.69110317  0.47317222  0.92129569    -0.83400
C311        C  0.70731061  0.45502623  0.90886495     0.97100
O312        O  0.72377101  0.47511340  0.91774660    -0.83400
O313        O  0.72416226  0.56827486  0.88239768    -0.86000
C314        C  0.72057866  0.61372929  0.87729193     1.01700
O315        O  0.71218461  0.63820038  0.90508734    -0.78800
O316        O  0.67483845  0.60087992  0.91823400    -0.79000
C317        C  0.66069525  0.57548651  0.93173676     1.01600
O318        O  0.68952163  0.53896594  0.02593105    -0.86300
O319        O  0.71322465  0.46727608  0.99433236    -0.83400
C320        C  0.73023778  0.48182907  0.00572289     0.97200
O321        O  0.73797396  0.51971977  0.99003195    -0.83400
O322        O  0.74125731  0.61140488  0.95155733    -0.86000
C323        C  0.73432572  0.64284898  0.97601839     1.01600
O324        O  0.71740599  0.63619511  0.99067638    -0.78800
O325        O  0.67940189  0.61025006  0.00385281    -0.79000
C326        C  0.68239479  0.58105867  0.03282476     1.01600
Cr327      Cr  0.69040520  0.50824292  0.97277933     1.93700
Cr328      Cr  0.73004405  0.54409450  0.93684664     1.93200
Cr329      Cr  0.69655275  0.61709402  0.95418558     1.39100
O330        O  0.70552719  0.55615345  0.95381019    -1.24100
O331        O  0.57867184  0.68849011  0.95872462    -0.86300
O332        O  0.55242129  0.75854243  0.92719008    -0.83400
C333        C  0.53625486  0.77626474  0.91464456     0.97100
O334        O  0.51976942  0.75829673  0.92630432    -0.83400
O335        O  0.51654445  0.66305463  0.89432337    -0.86000
C336        C  0.51864153  0.61680984  0.89064247     1.01700
O337        O  0.52770519  0.59297970  0.91760561    -0.78800
O338        O  0.56623684  0.62818533  0.92294559    -0.79000
C339        C  0.58103388  0.65279778  0.93416529     1.01600
O340        O  0.55569025  0.69348614  0.03251361    -0.86300
O341        O  0.53223992  0.76845097  0.00314995    -0.83400
C342        C  0.51470494  0.75778677  0.01486100     0.97200
O343        O  0.50634011  0.71965108  0.00144490    -0.83400
O344        O  0.50095828  0.62711440  0.96822120    -0.86000
C345        C  0.50801075  0.59633666  0.99287463     1.01600
O346        O  0.52564014  0.60003974  0.00375079    -0.78800
O347        O  0.56447604  0.62227327  0.00794010    -0.79000
C348        C  0.56244699  0.65047018  0.03764131     1.01600
Cr349      Cr  0.55371821  0.72405942  0.97899557     1.93700
Cr350      Cr  0.51274237  0.69142405  0.94865910     1.93200
Cr351      Cr  0.54539217  0.61537022  0.96275554     1.39100
O352        O  0.53739097  0.67735284  0.96259774    -1.24100
O353        O  0.30339277  0.80040440  0.28598659    -0.86300
O354        O  0.27990951  0.72648830  0.25661671    -0.83400
C355        C  0.26265314  0.74073220  0.26750290     0.97100
O356        O  0.25500739  0.77824967  0.25146812    -0.83400
O357        O  0.25186436  0.86830882  0.21200521    -0.86000
C358        C  0.25894367  0.90028159  0.23550295     1.01700
O359        O  0.27604801  0.89468953  0.24883768    -0.78800
O360        O  0.31399942  0.86955201  0.26015474    -0.79000
C361        C  0.31055045  0.84303255  0.29052964     1.01600
O362        O  0.32885528  0.79896438  0.21563028    -0.86300
O363        O  0.30248450  0.73014065  0.18328681    -0.83400
C364        C  0.28642156  0.71318603  0.16980875     0.97200
O365        O  0.26980058  0.73223973  0.17950488    -0.83400
O366        O  0.26895409  0.82369913  0.14273083    -0.86000
C367        C  0.27240529  0.86889984  0.13642122     1.01600
O368        O  0.28083452  0.89447053  0.16311923    -0.78800
O369        O  0.31810596  0.85633344  0.17504670    -0.79000
C370        C  0.33227106  0.83234334  0.18955833     1.01600
Cr371      Cr  0.30274431  0.76701738  0.23373649     1.93700
Cr372      Cr  0.26314972  0.80112233  0.19777522     1.93200
Cr373      Cr  0.29663997  0.87458953  0.21162796     1.39100
O374        O  0.28761717  0.81384977  0.21359649    -1.24100
O375        O  0.43918200  0.94606264  0.28485270    -0.86300
O376        O  0.46282185  0.01895264  0.25361705    -0.83400
C377        C  0.47931450  0.00411377  0.26724746     0.97100
O378        O  0.48739091  0.96566081  0.25320036    -0.83400
O379        O  0.49191150  0.87410613  0.21514593    -0.86000
C380        C  0.48443973  0.84252818  0.23882980     1.01700
O381        O  0.46710894  0.84805820  0.25156325    -0.78800
O382        O  0.42921780  0.87522859  0.26142656    -0.79000
C383        C  0.43236460  0.90335456  0.29093867     1.01600
O384        O  0.41488980  0.94392774  0.21412531    -0.86300
O385        O  0.44203006  0.01085693  0.17949061    -0.83400
C386        C  0.45844257  0.02782071  0.16690961     0.97200
O387        O  0.47479248  0.00942849  0.17864476    -0.83400
O388        O  0.47674588  0.91593594  0.14410055    -0.86000
C389        C  0.47301500  0.87057522  0.13870323     1.01600
O390        O  0.46371379  0.84655860  0.16557177    -0.78800
O391        O  0.42614676  0.88469041  0.17570721    -0.79000
C392        C  0.41177964  0.90949381  0.18905101     1.01600
Cr393      Cr  0.44064118  0.97677176  0.23146177     1.93700
Cr394      Cr  0.48097944  0.94093927  0.19909720     1.93200
Cr395      Cr  0.44714465  0.86788595  0.21326454     1.39100
O396        O  0.45615087  0.92877717  0.21368954    -1.24100
O397        O  0.30381794  0.95045924  0.45987551    -0.86300
O398        O  0.27983389  0.02285452  0.49163499    -0.83400
C399        C  0.26270223  0.00978330  0.48008563     0.97100
O400        O  0.25541690  0.96960260  0.49319104    -0.83400
O401        O  0.25275564  0.87467006  0.53218348    -0.86000
C402        C  0.26139883  0.84251717  0.51049145     1.01700
O403        O  0.27813979  0.85219967  0.49664524    -0.78800
O404        O  0.31492056  0.88103717  0.48421190    -0.79000
C405        C  0.31133533  0.90825788  0.45436406     1.01600
O406        O  0.32918926  0.95060365  0.52838444    -0.86300
O407        O  0.30149008  0.01656178  0.56442167    -0.83400
C408        C  0.28502667  0.03272252  0.57754695     0.97200
O409        O  0.26867906  0.01288289  0.56714029    -0.83400
O410        O  0.26748056  0.92001082  0.60221584    -0.86000
C411        C  0.27208435  0.87553655  0.60895895     1.01600
O412        O  0.28225870  0.85192589  0.58300247    -0.78800
O413        O  0.31930448  0.89369160  0.57019750    -0.79000
C414        C  0.33323530  0.91696987  0.55365796     1.01600
Cr415      Cr  0.30267017  0.98194473  0.51286660     1.93700
Cr416      Cr  0.26285287  0.94385990  0.54707355     1.93200
Cr417      Cr  0.29797991  0.87377151  0.53389646     1.39100
O418        O  0.28788504  0.93351143  0.53221071    -1.24100
O419        O  0.44014372  0.78472181  0.45833841    -0.86300
O420        O  0.46471304  0.71527851  0.49088564    -0.83400
C421        C  0.48096451  0.73174837  0.47673893     0.97100
O422        O  0.48785436  0.77183749  0.49004742    -0.83400
O423        O  0.48965099  0.86489420  0.52773216    -0.86000
C424        C  0.48085967  0.89674611  0.50656604     1.01700
O425        O  0.46397599  0.88829616  0.49363003    -0.78800
O426        O  0.42796438  0.85398977  0.48166975    -0.79000
C427        C  0.43238028  0.82639581  0.45219841     1.01600
O428        O  0.41434991  0.78364599  0.52723149    -0.86300
O429        O  0.44283150  0.72215151  0.56426466    -0.83400
C430        C  0.45951062  0.70738276  0.57681124     0.97200
O431        O  0.47547462  0.72794320  0.56490678    -0.83400
O432        O  0.47556151  0.82091524  0.59877053    -0.86000
C433        C  0.47072438  0.86538899  0.60486261     1.01600
O434        O  0.45976300  0.88753556  0.57973293    -0.78800
O435        O  0.42295122  0.84265004  0.56765989    -0.79000
C436        C  0.40947757  0.81787488  0.55140508     1.01600
Cr437      Cr  0.44132080  0.75469901  0.51189604     1.93700
Cr438      Cr  0.48036242  0.79657875  0.54391779     1.93200
Cr439      Cr  0.44435442  0.86398545  0.53117038     1.39100
O440        O  0.45529402  0.80500750  0.52987910    -1.24100
O441        O  0.80501933  0.29328465  0.27395390    -0.86300
O442        O  0.78138622  0.21992866  0.24428156    -0.83400
C443        C  0.76470785  0.23385796  0.25832893     0.97100
O444        O  0.75642597  0.27215537  0.24489129    -0.83400
O445        O  0.75130636  0.36328922  0.20735148    -0.86000
C446        C  0.75864644  0.39467182  0.23102851     1.01700
O447        O  0.77606283  0.38969767  0.24275413    -0.78800
O448        O  0.81433581  0.36431344  0.24957314    -0.79000
C449        C  0.81156049  0.33638776  0.27935332     1.01600
O450        O  0.82870173  0.29641475  0.20125678    -0.86300
O451        O  0.80171417  0.22883060  0.16890018    -0.83400
C452        C  0.78539245  0.21036407  0.15813120     0.97200
O453        O  0.76895501  0.22852590  0.17017149    -0.83400
O454        O  0.76651005  0.32225789  0.13567296    -0.86000
C455        C  0.76984387  0.36769310  0.12987422     1.01600
O456        O  0.77904257  0.39231662  0.15624386    -0.78800
O457        O  0.81686107  0.35586833  0.16403366    -0.79000
C458        C  0.83142444  0.33125549  0.17619567     1.01600
Cr459      Cr  0.80325960  0.26275261  0.22062234     1.93700
Cr460      Cr  0.76253963  0.29702059  0.19066405     1.93200
Cr461      Cr  0.79596007  0.37135182  0.20295452     1.39100
O462        O  0.78736267  0.31011840  0.20383343    -1.24100
O463        O  0.93695885  0.44409335  0.27691418    -0.86300
O464        O  0.96052794  0.51841161  0.24728228    -0.83400
C465        C  0.97760689  0.50523042  0.25932904     0.97100
O466        O  0.98603457  0.46820892  0.24389046    -0.83400
O467        O  0.99090463  0.37659883  0.20829376    -0.86000
C468        C  0.98380128  0.34539986  0.23276579     1.01700
O469        O  0.96625951  0.34950674  0.24475512    -0.78800
O470        O  0.92756944  0.37346393  0.25245823    -0.79000
C471        C  0.93010201  0.40122336  0.28228716     1.01600
O472        O  0.91343520  0.44164181  0.20464093    -0.86300
O473        O  0.93991505  0.51093598  0.17241697    -0.83400
C474        C  0.95614932  0.52835833  0.15952770     0.97200
O475        O  0.97263447  0.50965067  0.16994981    -0.83400
O476        O  0.97528497  0.41558309  0.13636819    -0.86000
C477        C  0.97256531  0.36977611  0.13155237     1.01600
O478        O  0.96346508  0.34548823  0.15858693    -0.78800
O479        O  0.92540456  0.38211602  0.16709424    -0.79000
C480        C  0.91081590  0.40723458  0.17918925     1.01600
Cr481      Cr  0.93871068  0.47556841  0.22378073     1.93700
Cr482      Cr  0.97938917  0.44201023  0.19083651     1.93200
Cr483      Cr  0.94628479  0.36704678  0.20548029     1.39100
O484        O  0.95469420  0.42858937  0.20583540    -1.24100
O485        O  0.80581245  0.44296863  0.44916034    -0.86300
O486        O  0.78211958  0.51664005  0.47945200    -0.83400
C487        C  0.76525746  0.50434020  0.46592271     0.97100
O488        O  0.75692331  0.46584763  0.47917319    -0.83400
O489        O  0.75140883  0.37373968  0.51438566    -0.86000
C490        C  0.75912465  0.34275430  0.49054685     1.01700
O491        O  0.77645651  0.34962803  0.47837022    -0.78800
O492        O  0.81500955  0.37191064  0.47305438    -0.79000
C493        C  0.81255304  0.40004776  0.44344589     1.01600
O494        O  0.82861973  0.43834057  0.52213045    -0.86300
O495        O  0.80194533  0.50575473  0.55465793    -0.83400
C496        C  0.78567398  0.52396191  0.56650963     0.97200
O497        O  0.76927585  0.50657293  0.55432222    -0.83400
O498        O  0.76615945  0.41221115  0.58733738    -0.86000
C499        C  0.76874842  0.36624142  0.59168333     1.01600
O500        O  0.77811806  0.34223165  0.56485065    -0.78800
O501        O  0.81629140  0.37818530  0.55858162    -0.79000
C502        C  0.83095515  0.40358342  0.54733864     1.01600
Cr503      Cr  0.80366436  0.47288537  0.50268054     1.93700
Cr504      Cr  0.76266729  0.43915937  0.53269913     1.93200
Cr505      Cr  0.79586711  0.36451044  0.51901555     1.39100
O506        O  0.78753083  0.42585736  0.51920416    -1.24100
O507        O  0.93622943  0.29429233  0.45096357    -0.86300
O508        O  0.95996422  0.22011176  0.47981383    -0.83400
C509        C  0.97680482  0.23282418  0.46590548     0.97100
O510        O  0.98522361  0.27082004  0.47970626    -0.83400
O511        O  0.99025227  0.36289104  0.51669174    -0.86000
C512        C  0.98267129  0.39484420  0.49365172     1.01700
O513        O  0.96516494  0.38997733  0.48245325    -0.78800
O514        O  0.92690889  0.36490656  0.47615869    -0.79000
C515        C  0.92925410  0.33713459  0.44613202     1.01600
O516        O  0.91304533  0.29622335  0.52394283    -0.86300
O517        O  0.93986751  0.22815055  0.55536257    -0.83400
C518        C  0.95604182  0.20860848  0.56567379     0.97200
O519        O  0.97250505  0.22791313  0.55475125    -0.83400
O520        O  0.97549999  0.32228580  0.58924624    -0.86000
C521        C  0.97218488  0.36788823  0.59494134     1.01600
O522        O  0.96285020  0.39244855  0.56876912    -0.78800
O523        O  0.92487715  0.35503978  0.56178551    -0.79000
C524        C  0.91035411  0.33017056  0.54972196     1.01600
Cr525      Cr  0.93829097  0.26291943  0.50398193     1.93700
Cr526      Cr  0.97909167  0.29650071  0.53398422     1.93200
Cr527      Cr  0.94557167  0.37124444  0.52251201     1.39100
O528        O  0.95424618  0.30996229  0.52101872    -1.24100
O529        O  0.07909680  0.04822153  0.27492923    -0.86300
O530        O  0.05171397  0.97757078  0.30423459    -0.83400
C531        C  0.03518565  0.95963293  0.31522156     0.97100
O532        O  0.01894831  0.97880386  0.30357494    -0.83400
O533        O  0.01551102  0.07199015  0.33881649    -0.86000
C534        C  0.01879253  0.11737169  0.34497438     1.01700
O535        O  0.02846769  0.14269462  0.31950009    -0.78800
O536        O  0.06632897  0.10654673  0.31255931    -0.79000
C537        C  0.08122496  0.08268364  0.30057555     1.01600
O538        O  0.05682828  0.04727433  0.20110036    -0.86300
O539        O  0.03261489  0.97223716  0.22814244    -0.83400
C540        C  0.01587325  0.98585747  0.21469645     0.97200
O541        O  0.00739524  0.02368376  0.22877232    -0.83400
O542        O  0.00163927  0.11424541  0.26717604    -0.86000
C543        C  0.00939461  0.14651660  0.24449366     1.01600
O544        O  0.02698927  0.14180217  0.23311467    -0.78800
O545        O  0.06547386  0.11771822  0.22711141    -0.79000
C546        C  0.06346623  0.09055350  0.19676738     1.01600
Cr547      Cr  0.05405874  0.01454425  0.25364194     1.93700
Cr548      Cr  0.01270653  0.04762766  0.28342223     1.93200
Cr549      Cr  0.04620023  0.12276249  0.27317800     1.39100
O550        O  0.03775727  0.06126274  0.27109519    -1.24100
O551        O  0.16335673  0.19866808  0.28303418    -0.86300
O552        O  0.19039040  0.26786918  0.31509804    -0.83400
C553        C  0.20668335  0.28481616  0.32772586     0.97100
O554        O  0.22303667  0.26455924  0.31760883    -0.83400
O555        O  0.22460087  0.17051679  0.35265987    -0.86000
C556        C  0.22098550  0.12499062  0.35812040     1.01700
O557        O  0.21206684  0.10088572  0.33116954    -0.78800
O558        O  0.17439054  0.13956541  0.32165018    -0.79000
C559        C  0.16006206  0.16395255  0.30806488     1.01600
O560        O  0.18784442  0.19891307  0.21127312    -0.86300
O561        O  0.21167459  0.27289630  0.24060823    -0.83400
C562        C  0.22872468  0.25875026  0.22858285     0.97200
O563        O  0.23660958  0.22085765  0.24361579    -0.83400
O564        O  0.24036634  0.12990825  0.28084614    -0.86000
C565        C  0.23321437  0.09853448  0.25700640     1.01600
O566        O  0.21578715  0.10330470  0.24517082    -0.78800
O567        O  0.17773435  0.12881102  0.23639583    -0.79000
C568        C  0.18067095  0.15634087  0.20639368     1.01600
Cr569      Cr  0.18925345  0.23132763  0.26415809     1.93700
Cr570      Cr  0.22931404  0.19604664  0.29748802     1.93200
Cr571      Cr  0.19564893  0.12263869  0.28387640     1.39100
O572        O  0.20461377  0.18374632  0.28279878    -1.24100
O573        O  0.07890807  0.19167805  0.95408997    -0.86300
O574        O  0.05233140  0.25952089  0.92046938    -0.83400
C575        C  0.03611401  0.27685653  0.90786012     0.97100
O576        O  0.01969148  0.25824842  0.91930443    -0.83400
O577        O  0.01740220  0.16272182  0.88661404    -0.86000
C578        C  0.02023264  0.11663592  0.88293918     1.01700
O579        O  0.02942832  0.09346072  0.91022867    -0.78800
O580        O  0.06774069  0.12986735  0.91828690    -0.79000
C581        C  0.08207008  0.15561149  0.93029093     1.01600
O582        O  0.05495481  0.19626696  0.02649605    -0.86300
O583        O  0.03123696  0.26892966  0.99562767    -0.83400
C584        C  0.01427811  0.25520903  0.00859001     0.97200
O585        O  0.00612722  0.21756872  0.99390500    -0.83400
O586        O  0.00176758  0.12541612  0.95930382    -0.86000
C587        C  0.00882577  0.09501813  0.98408758     1.01600
O588        O  0.02601327  0.10162160  0.99666011    -0.78800
O589        O  0.06459667  0.12495113  0.00349850    -0.79000
C590        C  0.06199635  0.15378905  0.03272444     1.01600
Cr591      Cr  0.05339839  0.22590669  0.97260920     1.93700
Cr592      Cr  0.01307645  0.19066277  0.94093395     1.93200
Cr593      Cr  0.04629506  0.11673614  0.95675573     1.39100
O594        O  0.03778083  0.17813874  0.95558530    -1.24100
O595        O  0.16464111  0.04732836  0.96586468    -0.86300
O596        O  0.19169265  0.98249640  0.93084230    -0.83400
C597        C  0.20795858  0.96532065  0.91809274     0.97100
O598        O  0.22440130  0.98357347  0.92926558    -0.83400
O599        O  0.22645647  0.07901990  0.89893674    -0.86000
C600        C  0.22300774  0.12469790  0.89523091     1.01700
O601        O  0.21397376  0.14762569  0.92315818    -0.78800
O602        O  0.17639497  0.10881699  0.93033043    -0.79000
C603        C  0.16192789  0.08252699  0.94114307     1.01600
O604        O  0.18861388  0.04095505  0.03786846    -0.86300
O605        O  0.21243957  0.96967103  0.00453647    -0.83400
C606        C  0.22949290  0.98183566  0.01716931     0.97200
O607        O  0.23729925  0.02148624  0.00489978    -0.83400
O608        O  0.24151957  0.11534650  0.97216961    -0.86000
C609        C  0.23418016  0.14541608  0.99723705     1.01600
O610        O  0.21675223  0.13912300  0.00936472    -0.78800
O611        O  0.17842104  0.11240696  0.01637273    -0.79000
C612        C  0.18117346  0.08268160  0.04505244     1.01600
Cr613      Cr  0.19028266  0.01340501  0.98352411     1.93700
Cr614      Cr  0.23067754  0.05028544  0.95254867     1.93200
Cr615      Cr  0.19700216  0.12282759  0.96946014     1.39100
O616        O  0.20590595  0.06190872  0.96762911    -1.24100
O617        O  0.30253494  0.29499213  0.78499904    -0.86300
O618        O  0.27927800  0.22249696  0.75443836    -0.83400
C619        C  0.26273616  0.23682548  0.76908234     0.97100
O620        O  0.25437877  0.27471534  0.75522957    -0.83400
O621        O  0.24922927  0.36640698  0.71948870    -0.86000
C622        C  0.25650914  0.39698880  0.74385836     1.01700
O623        O  0.27368749  0.39000301  0.75617504    -0.78800
O624        O  0.31196229  0.36699446  0.76312366    -0.79000
C625        C  0.30885942  0.33772827  0.79199368     1.01600
O626        O  0.32687414  0.30054561  0.71309526    -0.86300
O627        O  0.30015808  0.23321417  0.67918361    -0.83400
C628        C  0.28392777  0.21528322  0.66729728     0.97200
O629        O  0.26742207  0.23301512  0.67949778    -0.83400
O630        O  0.26488733  0.32765201  0.64714429    -0.86000
C631        C  0.26703867  0.37380790  0.64341705     1.01600
O632        O  0.27676560  0.39759415  0.66962509    -0.78800
O633        O  0.31551937  0.36267683  0.67780602    -0.79000
C634        C  0.32992929  0.33681393  0.68942379     1.01600
Cr635      Cr  0.30131728  0.26596528  0.73141330     1.93700
Cr636      Cr  0.26073403  0.30074427  0.70146623     1.93200
Cr637      Cr  0.29388872  0.37518263  0.71614802     1.39100
O638        O  0.28554072  0.31367135  0.71500763    -1.24100
O639        O  0.43940601  0.43797011  0.78336012    -0.86300
O640        O  0.46297566  0.51235689  0.75467873    -0.83400
C641        C  0.47993995  0.49852523  0.76670772     0.97100
O642        O  0.48801347  0.46104985  0.75095615    -0.83400
O643        O  0.49200789  0.37084598  0.71077992    -0.86000
C644        C  0.48463475  0.33816760  0.73349733     1.01700
O645        O  0.46703299  0.34143014  0.74533444    -0.78800
O646        O  0.42922222  0.36844158  0.75767012    -0.79000
C647        C  0.43222600  0.39532245  0.78792123     1.01600
O648        O  0.41470218  0.44023514  0.71362447    -0.86300
O649        O  0.44187128  0.50801511  0.68076347    -0.83400
C650        C  0.45810015  0.52718299  0.66972538     0.97200
O651        O  0.47452483  0.50688088  0.67864256    -0.83400
O652        O  0.47675093  0.41444032  0.64091556    -0.86000
C653        C  0.47287182  0.36942638  0.63418833     1.01600
O654        O  0.46292880  0.34488385  0.65987198    -0.78800
O655        O  0.42501673  0.38246660  0.67282989    -0.79000
C656        C  0.41095175  0.40735853  0.68760051     1.01600
Cr657      Cr  0.44072514  0.47140181  0.73131569     1.93700
Cr658      Cr  0.48092734  0.43769529  0.69657991     1.93200
Cr659      Cr  0.44674277  0.36379417  0.70869156     1.39100
O660        O  0.45606691  0.42449333  0.71133314    -1.24100
O661        O  0.30134606  0.45386163  0.96022263    -0.86300
O662        O  0.27851314  0.52567667  0.99556529    -0.83400
C663        C  0.26143688  0.51215590  0.98407959     0.97100
O664        O  0.25417646  0.47233998  0.99762743    -0.83400
O665        O  0.25148361  0.37855496  0.03449407    -0.86000
C666        C  0.25893627  0.34686967  0.01097723     1.01700
O667        O  0.27579724  0.35448550  0.99653277    -0.78800
O668        O  0.31276804  0.38343938  0.98233176    -0.79000
C669        C  0.30859651  0.41172735  0.95347969     1.01600
O670        O  0.32820660  0.45144989  0.02694917    -0.86300
O671        O  0.30169445  0.51561926  0.06654593    -0.83400
C672        C  0.28555160  0.53181916  0.08098588     0.97200
O673        O  0.26893286  0.51308057  0.07136157    -0.83400
O674        O  0.26790350  0.41880048  0.10434643    -0.86000
C675        C  0.27204605  0.37354055  0.10887748     1.01600
O676        O  0.28178730  0.35090867  0.08178409    -0.78800
O677        O  0.31929073  0.39154508  0.06699380    -0.79000
C678        C  0.33286885  0.41640195  0.05044667     1.01600
Cr679      Cr  0.30155986  0.48338711  0.01404699     1.93700
Cr680      Cr  0.26238741  0.44538148  0.05038268     1.93200
Cr681      Cr  0.29674331  0.37427859  0.03249352     1.39100
O682        O  0.28701768  0.43453430  0.03337904    -1.24100
O683        O  0.43986648  0.29094413  0.95685208    -0.86300
O684        O  0.46392316  0.21846253  0.98716720    -0.83400
C685        C  0.48098054  0.23197766  0.97485261     0.97100
O686        O  0.48843281  0.27140112  0.98850945    -0.83400
O687        O  0.49128464  0.36439234  0.02695802    -0.86000
C688        C  0.48337392  0.39689148  0.00494058     1.01700
O689        O  0.46603877  0.39127010  0.99292466    -0.78800
O690        O  0.42901888  0.36077423  0.98148701    -0.79000
C691        C  0.43218130  0.33296244  0.95167908     1.01600
O692        O  0.41479440  0.29045560  0.02639404    -0.86300
O693        O  0.44225074  0.22449068  0.06113140    -0.83400
C694        C  0.45861800  0.20811821  0.07388750     0.97200
O695        O  0.47497562  0.22780275  0.06298151    -0.83400
O696        O  0.47608250  0.32117236  0.09769894    -0.86000
C697        C  0.47191053  0.36613472  0.10394286     1.01600
O698        O  0.46185393  0.38989122  0.07842302    -0.78800
O699        O  0.42451620  0.34808470  0.06738366    -0.79000
C700        C  0.41066026  0.32412497  0.05166108     1.01600
Cr701      Cr  0.44117866  0.25937097  0.00965520     1.93700
Cr702      Cr  0.48088631  0.29666019  0.04261461     1.93200
Cr703      Cr  0.44601874  0.36806092  0.03038354     1.39100
O704        O  0.45601474  0.30789002  0.02823942    -1.24100
C705        C  0.35372811  0.39779425  0.05226592    -0.07100
C706        C  0.36118977  0.37869998  0.08829881    -0.18200
C707        C  0.37956394  0.35356040  0.08960531     0.10100
C708        C  0.39021824  0.34458047  0.05380062    -0.07000
C709        C  0.38263876  0.36312020  0.01801643    -0.18300
C710        C  0.36508645  0.39085216  0.01687369     0.10100
S711        S  0.38836901  0.33316626  0.13748611    -0.33200
S712        S  0.35769463  0.41659773  0.96948794    -0.33200
H713        H  0.37080745  0.38922025  0.94510384     0.28100
H714        H  0.40061505  0.29486697  0.12305053     0.28100
H715        H  0.35260382  0.38323736  0.11558244     0.18700
H716        H  0.39102091  0.35748399  0.99070130     0.18700
C717        C  0.42781131  0.37747230  0.82897143    -0.07100
C718        C  0.42586787  0.41299024  0.85937722    -0.18200
C719        C  0.42535604  0.39965174  0.89962232     0.10100
C720        C  0.42745191  0.34927813  0.91041930    -0.07000
C721        C  0.42763649  0.31344220  0.87992484    -0.18300
C722        C  0.42765429  0.32673209  0.83945865     0.10100
S723        S  0.42346622  0.44946776  0.93514447    -0.33200
S724        S  0.42909422  0.27819027  0.80236363    -0.33200
H725        H  0.42535207  0.23822310  0.82824620     0.28100
H726        H  0.40703350  0.42847447  0.95508499     0.28100
H727        H  0.42534512  0.45191326  0.85183530     0.18700
H728        H  0.42875630  0.27473215  0.88778919     0.18700
C729        C  0.31146914  0.39370677  0.91219358    -0.07100
C730        C  0.30951057  0.34269764  0.90564063    -0.18200
C731        C  0.30943082  0.32271160  0.86716016     0.10100
C732        C  0.31147068  0.35476974  0.83378772    -0.07000
C733        C  0.31421194  0.40570615  0.84058088    -0.18300
C734        C  0.31434621  0.42539383  0.87913775     0.10100
S735        S  0.30614654  0.25644908  0.86217756    -0.33200
S736        S  0.31830226  0.49109633  0.88382017    -0.33200
H737        H  0.33022460  0.48725925  0.91793069     0.28100
H738        H  0.30641822  0.24438042  0.90297233     0.28100
H739        H  0.30717104  0.31841803  0.93093442     0.18700
H740        H  0.31583854  0.43088296  0.81559950     0.18700
C741        C  0.35049418  0.35452592  0.68081919    -0.07100
C742        C  0.35427560  0.40557683  0.68463175    -0.18200
C743        C  0.37368813  0.42461005  0.68401958     0.10100
C744        C  0.39003168  0.39211177  0.67961533    -0.07000
C745        C  0.38614173  0.34144160  0.67314132    -0.18300
C746        C  0.36669347  0.32246048  0.67368355     0.10100
S747        S  0.37655521  0.49054107  0.68976575    -0.33200
S748        S  0.36355031  0.25700973  0.66562820    -0.33200
H749        H  0.34468107  0.26082567  0.64813679     0.28100
H750        H  0.39357750  0.49391459  0.66518378     0.28100
H751        H  0.34200548  0.43086739  0.68993190     0.18700
H752        H  0.39841719  0.31575438  0.66951084     0.18700
C753        C  0.24347423  0.19365425  0.00563893    -0.07100
C754        C  0.23355347  0.22501222  0.03292136    -0.18200
C755        C  0.23663810  0.27601937  0.03288708     0.10100
C756        C  0.25064607  0.29668178  0.00599736    -0.07000
C757        C  0.26086605  0.26497583  0.97940969    -0.18300
C758        C  0.25802065  0.21405197  0.97992330     0.10100
S759        S  0.22185740  0.31195245  0.06740858    -0.33200
S760        S  0.27365566  0.17785275  0.94708844    -0.33200
H761        H  0.27732444  0.14113194  0.97590061     0.28100
H762        H  0.21644911  0.34715420  0.03852902     0.28100
H763        H  0.22234016  0.21014145  0.05296995     0.18700
H764        H  0.27200064  0.27957730  0.95906234     0.18700
C765        C  0.23148937  0.15299485  0.86053893    -0.07100
C766        C  0.23461812  0.20422186  0.86499456    -0.18200
C767        C  0.24492820  0.23205966  0.83614435     0.10100
C768        C  0.25266525  0.20857811  0.80157572    -0.07000
C769        C  0.24932387  0.15769418  0.79660911    -0.18300
C770        C  0.23841553  0.13012131  0.82489909     0.10100
S771        S  0.24817967  0.29720285  0.84611384    -0.33200
S772        S  0.23290766  0.06676680  0.81242065    -0.33200
H773        H  0.21342872  0.06812971  0.82815309     0.28100
H774        H  0.26671947  0.30180562  0.82686692     0.28100
H775        H  0.22956864  0.22277021  0.89192169     0.18700
H776        H  0.25454324  0.13964559  0.76958494     0.18700
C777        C  0.14163562  0.09890994  0.92981142    -0.07100
C778        C  0.13832305  0.15011627  0.92529641    -0.18200
C779        C  0.11915581  0.16965724  0.92167918     0.10100
C780        C  0.10264428  0.13763165  0.92275532    -0.07000
C781        C  0.10604158  0.08609923  0.92348777    -0.18300
C782        C  0.12532015  0.06642813  0.92705811     0.10100
S783        S  0.11673360  0.23579349  0.91663996    -0.33200
S784        S  0.12888327  0.00018500  0.92835560    -0.33200
H785        H  0.10887998  0.98705133  0.92261583     0.28100
H786        H  0.09910635  0.23412192  0.89440533     0.28100
H787        H  0.15073583  0.17569717  0.92646687     0.18700
H788        H  0.09343245  0.06112743  0.92386293     0.18700
C789        C  0.26313999  0.34463304  0.14290153    -0.07100
C790        C  0.26064461  0.29318282  0.13795463    -0.18200
C791        C  0.24914234  0.26485925  0.16463257     0.10100
C792        C  0.23996913  0.28767116  0.19799928    -0.07000
C793        C  0.24280250  0.33866380  0.20374378    -0.18300
C794        C  0.25450928  0.36701321  0.17724514     0.10100
S795        S  0.24575133  0.20024276  0.15295569    -0.33200
S796        S  0.25845549  0.43098840  0.19003793    -0.33200
H797        H  0.27837880  0.43171944  0.17680305     0.28100
H798        H  0.22607589  0.19733235  0.16737083     0.28100
H799        H  0.26679666  0.27499733  0.11181906     0.18700
H800        H  0.23634519  0.35631677  0.22984004     0.18700
C801        C  0.17689465  0.13710538  0.16562895    -0.07100
C802        C  0.17920885  0.08614606  0.15875652    -0.18200
C803        C  0.17889571  0.06638300  0.12017864     0.10100
C804        C  0.17687056  0.09844073  0.08691069    -0.07000
C805        C  0.17296486  0.14882624  0.09415421    -0.18300
C806        C  0.17276184  0.16837316  0.13295194     0.10100
S807        S  0.18143969  0.00014014  0.11603293    -0.33200
S808        S  0.16713875  0.23319362  0.14008109    -0.33200
H809        H  0.16246441  0.24406212  0.10021739     0.28100
H810        H  0.16665439  0.99561251  0.08682760     0.28100
H811        H  0.18194636  0.06142852  0.18362615     0.18700
H812        H  0.17087986  0.17361904  0.06917807     0.18700
C813        C  0.06651675  0.13788807  0.07434122    -0.07100
C814        C  0.06507063  0.17324474  0.10507024    -0.18200
C815        C  0.06625264  0.15990308  0.14534619     0.10100
C816        C  0.06797038  0.10933026  0.15589761    -0.07000
C817        C  0.07116195  0.07464052  0.12531441    -0.18300
C818        C  0.07071844  0.08816415  0.08502339     0.10100
S819        S  0.06433613  0.20914776  0.18140842    -0.33200
S820        S  0.07496884  0.03939529  0.04933383    -0.33200
H821        H  0.05567839  0.04246931  0.03384303     0.28100
H822        H  0.08168245  0.19478696  0.20151273     0.28100
H823        H  0.06255605  0.21188545  0.09781274     0.18700
H824        H  0.07320181  0.03589398  0.13280196     0.18700
C825        C  0.10119186  0.10184151  0.31109525    -0.07100
C826        C  0.10367981  0.15364132  0.31267326    -0.18200
C827        C  0.12255883  0.17534245  0.31481439     0.10100
C828        C  0.13958633  0.14492222  0.31529466    -0.07000
C829        C  0.13696866  0.09311650  0.31695059    -0.18300
C830        C  0.11806434  0.07141817  0.31495481     0.10100
S831        S  0.12391328  0.24187461  0.31631454    -0.33200
S832        S  0.11647497  0.00489623  0.31691145    -0.33200
H833        H  0.09758597  0.00349922  0.33529176     0.28100
H834        H  0.14137817  0.24318986  0.33891333     0.28100
H835        H  0.09085348  0.17771542  0.31031269     0.18700
H836        H  0.14983048  0.06898914  0.31777576     0.18700
C837        C  0.98730442  0.20182807  0.43509430    -0.07100
C838        C  0.00786567  0.20898617  0.42874406    -0.18200
C839        C  0.01876188  0.18023395  0.40132635     0.10100
C840        C  0.00912740  0.14293532  0.37927496    -0.07000
C841        C  0.98874704  0.13493599  0.38597256    -0.18300
C842        C  0.97770903  0.16433887  0.41267288     0.10100
S843        S  0.04504320  0.19221217  0.39643620    -0.33200
S844        S  0.95124760  0.15407842  0.41415941    -0.33200
H845        H  0.94659858  0.20459317  0.41005332     0.28100
H846        H  0.05036282  0.14307580  0.38749580     0.28100
H847        H  0.01568334  0.23698293  0.44557930     0.18700
H848        H  0.98103758  0.10747940  0.36832861     0.18700
C849        C  0.85111847  0.38638834  0.55785439    -0.07100
C850        C  0.85434428  0.33495727  0.56000911    -0.18200
C851        C  0.87353973  0.31514314  0.56073897     0.10100
C852        C  0.89002954  0.34726693  0.55978956    -0.07000
C853        C  0.88675766  0.39874118  0.56154477     0.04100
C854        C  0.86750592  0.41863543  0.56012882     0.10100
S855        S  0.87597756  0.24870482  0.56129567    -0.33200
S856        S  0.86408372  0.48497817  0.56014097    -0.33200
H857        H  0.88431588  0.49782731  0.56201325     0.28100
H858        H  0.89409774  0.24820221  0.58191302     0.28100
H859        H  0.84187264  0.30971206  0.55859344     0.18700
H860        H  0.89935738  0.42356450  0.56106524     0.18700
C861        C  0.92570466  0.38380749  0.32362330    -0.07100
C862        C  0.92488700  0.41920476  0.35435643    -0.18200
C863        C  0.92394614  0.40545706  0.39458158     0.10100
C864        C  0.92467565  0.35469209  0.40507525    -0.07000
C865        C  0.92370298  0.31939002  0.37435845    -0.18300
C866        C  0.92402143  0.33312324  0.33410513     0.10100
S867        S  0.92293574  0.45491327  0.43057091    -0.33200
S868        S  0.92301121  0.28356517  0.29824739    -0.33200
H869        H  0.94186303  0.29389845  0.28213371     0.28100
H870        H  0.90630609  0.43504987  0.45073218     0.28100
H871        H  0.92542052  0.45829275  0.34711207     0.18700
H872        H  0.92355833  0.28029465  0.38166408     0.18700
C873        C  0.00036774  0.19520771  0.23919068    -0.07100
C874        C  0.99294376  0.21876749  0.27352108    -0.18200
C875        C  0.98976072  0.26974846  0.27409539     0.10100
C876        C  0.99350793  0.29774037  0.23922248    -0.07000
C877        C  0.00128180  0.27427520  0.20520068    -0.18300
C878        C  0.00444736  0.22339969  0.20466775     0.10100
S879        S  0.98149879  0.29708953  0.32049807    -0.33200
S880        S  0.01328994  0.19626159  0.15873581    -0.33200
H881        H  0.00474713  0.14953995  0.16557186     0.28100
H882        H  0.98896859  0.34442780  0.31201086     0.28100
H883        H  0.99078216  0.19794056  0.30081741     0.18700
H884        H  0.00356282  0.29498237  0.17787903     0.18700
C885        C  0.00342886  0.28418247  0.03991374    -0.07100
C886        C  0.00521416  0.33596108  0.04053927    -0.18200
C887        C  0.99427954  0.36524649  0.06767465     0.10100
C888        C  0.98179122  0.34252286  0.09684108    -0.07000
C889        C  0.97984888  0.29060960  0.09557843    -0.18300
C890        C  0.99030898  0.26155485  0.06775874     0.10100
S891        S  0.99672569  0.43128498  0.06240346    -0.33200
S892        S  0.98663037  0.19546719  0.07045855    -0.33200
H893        H  0.00687146  0.18366667  0.06504682     0.28100
H894        H  0.97607327  0.43975189  0.06398023     0.28100
H895        H  0.01472260  0.35404513  0.01870675     0.18700
H896        H  0.97048136  0.27189077  0.11729827     0.18700
C897        C  0.81543510  0.35394867  0.32061296    -0.07100
C898        C  0.81681324  0.31847203  0.35115026    -0.18200
C899        C  0.81762570  0.33208727  0.39134082     0.10100
C900        C  0.81655856  0.38278019  0.40197733    -0.07000
C901        C  0.81644594  0.41830978  0.37133679    -0.18300
C902        C  0.81585315  0.40478346  0.33099515     0.10100
S903        S  0.81875504  0.28240506  0.42711160    -0.33200
S904        S  0.81399377  0.45341517  0.29404777    -0.33200
H905        H  0.81598465  0.49395015  0.31999902     0.28100
H906        H  0.83555198  0.30196734  0.44624432     0.28100
H907        H  0.81678697  0.27948424  0.34379080     0.18700
H908        H  0.81586219  0.45707874  0.37910705     0.18700
C909        C  0.85167740  0.34985878  0.16716160    -0.07100
C910        C  0.85468124  0.40140740  0.16870541    -0.18200
C911        C  0.87379515  0.42185930  0.16937960     0.10100
C912        C  0.89050150  0.39027847  0.16878433    -0.07000
C913        C  0.88745071  0.33900221  0.16365494    -0.18300
C914        C  0.86830683  0.31861275  0.16273218     0.10100
S915        S  0.87578654  0.48827896  0.17190101    -0.33200
S916        S  0.86607442  0.25259461  0.15657513    -0.33200
H917        H  0.84737468  0.25413276  0.13820313     0.28100
H918        H  0.89386480  0.49075820  0.15062181     0.28100
H919        H  0.84202885  0.42603801  0.17157557     0.18700
H920        H  0.90005923  0.31408176  0.16247983     0.18700
C921        C  0.46025596  0.66369092  0.60339827    -0.07100
C922        C  0.44287758  0.65060543  0.62437932    -0.18200
C923        C  0.44183499  0.60749937  0.64720891     0.10100
C924        C  0.45829860  0.57477361  0.64783704    -0.07000
C925        C  0.47587067  0.58858144  0.62780500    -0.18300
C926        C  0.47719651  0.63275634  0.60641755     0.10100
S927        S  0.41929816  0.59810995  0.67575974    -0.33200
S928        S  0.50073321  0.64572106  0.58253531    -0.33200
H929        H  0.50343829  0.68993460  0.60402176     0.28100
H930        H  0.42936794  0.58753563  0.71139088     0.28100
H931        H  0.42994505  0.67454080  0.62340700     0.18700
H932        H  0.48879868  0.56464692  0.62859154     0.18700
C933        C  0.28464936  0.07806078  0.60218857    -0.07100
C934        C  0.26930601  0.11239848  0.59595762    -0.18200
C935        C  0.26916131  0.15836528  0.61508435     0.10100
C936        C  0.28434343  0.17012010  0.64233260    -0.07000
C937        C  0.29970864  0.13576104  0.64850410    -0.18300
C938        C  0.29993766  0.08993914  0.62916844     0.10100
S939        S  0.24987961  0.20127111  0.60155653    -0.33200
S940        S  0.31956052  0.04745496  0.64193761    -0.33200
H941        H  0.30757174  0.00485268  0.64029388     0.28100
H942        H  0.26244680  0.24285270  0.60184927     0.28100
H943        H  0.25767794  0.10419048  0.57474549     0.18700
H944        H  0.31130521  0.14381459  0.66982189     0.18700
C945        C  0.25104505  0.04214593  0.45181705    -0.07100
C946        C  0.23388440  0.02294872  0.43366001    -0.18200
C947        C  0.22287381  0.05035637  0.40571091     0.10100
C948        C  0.22932697  0.09815304  0.39366045    -0.07000
C949        C  0.24590804  0.11826952  0.41308295    -0.18300
C950        C  0.25647986  0.09168827  0.44212942     0.10100
S951        S  0.20045777  0.02225986  0.38733422    -0.33200
S952        S  0.27656395  0.12420660  0.46573475    -0.33200
H953        H  0.27027903  0.11149305  0.50452425     0.28100
H954        H  0.18957939  0.06676550  0.38671725     0.28100
H955        H  0.22889560  0.98597201  0.44122973     0.18700
H956        H  0.25105465  0.15496288  0.40499505     0.18700
C957        C  0.38864040  0.83662496  0.55388278    -0.07100
C958        C  0.38171201  0.85873188  0.58950324    -0.18200
C959        C  0.36393970  0.88643330  0.59070633     0.10100
C960        C  0.35345415  0.89523255  0.55508132    -0.07000
C961        C  0.36050125  0.87364312  0.51966537    -0.18300
C962        C  0.37716412  0.84279910  0.51898771     0.10100
S963        S  0.35569782  0.91043860  0.63821529    -0.33200
S964        S  0.38289634  0.81333860  0.47207488    -0.33200
H965        H  0.38345132  0.76561930  0.48882769     0.28100
H966        H  0.34447834  0.94985066  0.62288312     0.28100
H967        H  0.39031640  0.85488010  0.61645012     0.18700
H968        H  0.35237174  0.87879287  0.49233597     0.18700
C969        C  0.45867047  0.16290349  0.09886492    -0.07100
C970        C  0.44410789  0.12672706  0.09179098    -0.18200
C971        C  0.44411603  0.08153770  0.11215398     0.10100
C972        C  0.45874364  0.07228164  0.14118849    -0.07000
C973        C  0.47342722  0.10816700  0.14798891    -0.18300
C974        C  0.47344717  0.15331814  0.12758355     0.10100
S975        S  0.42569320  0.03644881  0.09818814    -0.33200
S976        S  0.49203620  0.19801304  0.14132364    -0.33200
H977        H  0.47878495  0.23826186  0.14095147     0.28100
H978        H  0.43820188  0.99517302  0.10304845     0.28100
H979        H  0.43296413  0.13296254  0.06917041     0.18700
H980        H  0.48455833  0.10185247  0.17061088     0.18700
C981        C  0.42922524  0.88476933  0.33242187    -0.07100
C982        C  0.42887412  0.83327565  0.33860121    -0.18200
C983        C  0.42897206  0.81275016  0.37709632     0.10100
C984        C  0.42931808  0.84447504  0.41071911    -0.07000
C985        C  0.42849631  0.89586080  0.40455821    -0.18300
C986        C  0.42850366  0.91639665  0.36611863     0.10100
S987        S  0.42872478  0.74608881  0.38226178    -0.33200
S988        S  0.42769412  0.98305929  0.36122396    -0.33200
H989        H  0.42701450  0.99460574  0.40212314     0.28100
H990        H  0.42738312  0.73445183  0.34148298     0.28100
H991        H  0.42937206  0.80886967  0.31309732     0.18700
H992        H  0.42865961  0.92025373  0.43007324     0.18700
C993        C  0.28576128  0.57666500  0.10549611    -0.07100
C994        C  0.27245318  0.61449063  0.09545440    -0.18200
C995        C  0.27316182  0.66037568  0.11426453     0.10100
C996        C  0.28685591  0.66815545  0.14524266    -0.07000
C997        C  0.30028217  0.63036784  0.15518109    -0.18300
C998        C  0.29987117  0.58469420  0.13568216     0.10100
S999        S  0.25728438  0.70853509  0.09540661    -0.33200
S1000       S  0.31714657  0.53778076  0.15167063    -0.33200
H1001       H  0.30451046  0.49741752  0.14429378     0.28100
H1002       H  0.27207509  0.74516506  0.09757244     0.28100
H1003       H  0.26201267  0.60904981  0.07136973     0.18700
H1004       H  0.31074921  0.63585897  0.17919393     0.18700
C1005       C  0.24975340  0.94879047  0.24216307    -0.07100
C1006       C  0.25646619  0.97548293  0.27537592    -0.18200
C1007       C  0.25380456  0.02625495  0.27833062     0.10100
C1008       C  0.24293635  0.05112786  0.24866284    -0.07000
C1009       C  0.23614220  0.02453699  0.21539827    -0.18300
C1010       C  0.23930147  0.97368673  0.21185011     0.10100
S1011       S  0.26427860  0.05612224  0.32132413    -0.33200
S1012       S  0.22967667  0.94198962  0.16868742    -0.33200
H1013       H  0.22550659  0.98438106  0.14588057     0.28100
H1014       H  0.27333733  0.09394307  0.29875351     0.28100
H1015       H  0.26480718  0.95692764  0.29844576     0.18700
H1016       H  0.22745098  0.04336462  0.19304164     0.18700
C1017       C  0.24093262  0.94961161  0.04535824    -0.07100
C1018       C  0.25908093  0.96766746  0.06025148    -0.18200
C1019       C  0.27060133  0.94043610  0.08709148     0.10100
C1020       C  0.26392408  0.89371210  0.10061766    -0.07000
C1021       C  0.24651316  0.87407227  0.08389935    -0.18300
C1022       C  0.23490541  0.90137693  0.05711379     0.10100
S1023       S  0.29379390  0.96747039  0.10253963    -0.33200
S1024       S  0.21234737  0.87262901  0.04037089    -0.33200
H1025       H  0.20019499  0.90965659  0.05730035     0.28100
H1026       H  0.30394350  0.92205086  0.10521845     0.28100
H1027       H  0.26446295  0.00378016  0.05111676     0.18700
H1028       H  0.24109797  0.83827089  0.09375965     0.18700
C1029       C  0.31446741  0.86138850  0.33154116    -0.07100
C1030       C  0.31628422  0.82633086  0.36226565    -0.18200
C1031       C  0.31689920  0.84031026  0.40238583     0.10100
C1032       C  0.31530221  0.89097615  0.41280391    -0.07000
C1033       C  0.31483756  0.92625275  0.38190897    -0.18300
C1034       C  0.31438859  0.91229675  0.34158512     0.10100
S1035       S  0.31823040  0.79095328  0.43836719    -0.33200
S1036       S  0.31203264  0.96015914  0.30413263    -0.33200
H1037       H  0.31316237  0.00116730  0.32982891     0.28100
H1038       H  0.33527599  0.81031654  0.45659850     0.28100
H1039       H  0.31667606  0.78728620  0.35509240     0.18700
H1040       H  0.31389786  0.96507641  0.38946478     0.18700
C1041       C  0.35266073  0.85062550  0.18174858    -0.07100
C1042       C  0.35555391  0.90227697  0.18203358    -0.18200
C1043       C  0.37459789  0.92307883  0.18173083     0.10100
C1044       C  0.39135797  0.89174697  0.18100610    -0.07000
C1045       C  0.38841534  0.84017035  0.17809388    -0.18300
C1046       C  0.36934405  0.81938418  0.17856478     0.10100
S1047       S  0.37644550  0.98960049  0.18314906    -0.33200
S1048       S  0.36731254  0.75297872  0.17575505    -0.33200
H1049       H  0.34881401  0.75261707  0.15653078     0.28100
H1050       H  0.39419934  0.99207577  0.16072987     0.28100
H1051       H  0.34283571  0.92685163  0.18436643     0.18700
H1052       H  0.40111351  0.81542287  0.17744400     0.18700
C1053       C  0.50342798  0.78959246  0.04405910    -0.07100
C1054       C  0.48696856  0.76866582  0.06416308    -0.18200
C1055       C  0.47585327  0.79516044  0.09278544     0.10100
C1056       C  0.48164879  0.84383887  0.10331078    -0.07000
C1057       C  0.49750853  0.86566587  0.08187291    -0.18300
C1058       C  0.50805502  0.83975389  0.05203224     0.10100
S1059       S  0.45405289  0.76614631  0.11456932    -0.33200
S1060       S  0.52670007  0.87366542  0.02446917    -0.33200
H1061       H  0.52067820  0.85565619  0.98707430     0.28100
H1062       H  0.45463844  0.72218192  0.09215607     0.28100
H1063       H  0.48282596  0.73093295  0.05766399     0.18700
H1064       H  0.50193628  0.90319234  0.08859659     0.18700
C1065       C  0.49820775  0.54899066  0.00022137    -0.07100
C1066       C  0.49030262  0.52557867  0.96663429    -0.18200
C1067       C  0.48767675  0.47458159  0.96575465     0.10100
C1068       C  0.49198652  0.44619795  0.99996117    -0.07000
C1069       C  0.49927110  0.46979449  0.03416592    -0.18300
C1070       C  0.50232863  0.52089598  0.03473126     0.10100
S1071       S  0.47947389  0.44763950  0.91946894    -0.33200
S1072       S  0.51134565  0.54824297  0.08029375    -0.33200
H1073       H  0.50424592  0.59623544  0.07250801     0.28100
H1074       H  0.48837400  0.40119404  0.92571329     0.28100
H1075       H  0.48778070  0.54642343  0.93950456     0.18700
H1076       H  0.50164452  0.44876632  0.06124300     0.18700
C1077       C  0.50933420  0.58875750  0.85685682    -0.07100
C1078       C  0.51552188  0.53969735  0.84971782    -0.18200
C1079       C  0.50612396  0.50921806  0.82162653     0.10100
C1080       C  0.49047413  0.52819121  0.79800912    -0.07000
C1081       C  0.48452162  0.57747300  0.80460793    -0.18300
C1082       C  0.49327959  0.60720725  0.83399568     0.10100
S1083       S  0.51396929  0.44554429  0.81975981    -0.33200
S1084       S  0.48206893  0.66682453  0.84236927    -0.33200
H1085       H  0.47941552  0.65898072  0.88359190     0.28100
H1086       H  0.49440542  0.42715212  0.82091591     0.28100
H1087       H  0.52740762  0.52399175  0.86734641     0.18700
H1088       H  0.47245253  0.59289680  0.78733341     0.18700
C1089       C  0.64012523  0.59298614  0.92381583    -0.07100
C1090       C  0.63706861  0.64454051  0.92108737    -0.18200
C1091       C  0.61795742  0.66514793  0.92099763     0.10100
C1092       C  0.60125661  0.63394615  0.92429791    -0.07000
C1093       C  0.60424672  0.58223188  0.92375259    -0.18300
C1094       C  0.62340946  0.56155066  0.92317475     0.10100
S1095       S  0.61589468  0.73147187  0.91700237    -0.33200
S1096       S  0.62553337  0.49509083  0.92166864    -0.33200
H1097       H  0.64363808  0.49441662  0.90027836     0.28100
H1098       H  0.59752957  0.73105303  0.89724154     0.28100
H1099       H  0.64967950  0.66938861  0.92071676     0.18700
H1100       H  0.59159047  0.55758129  0.92559845     0.18700
C1101       C  0.74140631  0.45289128  0.03624089    -0.07100
C1102       C  0.73810171  0.40168380  0.03916374    -0.18200
C1103       C  0.74814402  0.37220862  0.06699053     0.10100
C1104       C  0.76140313  0.39434151  0.09448128    -0.07000
C1105       C  0.76499285  0.44555498  0.09084549    -0.18300
C1106       C  0.75539929  0.47482657  0.06213433     0.10100
S1107       S  0.74311798  0.30678346  0.06541619    -0.33200
S1108       S  0.76039676  0.54061396  0.06092928    -0.33200
H1109       H  0.77605561  0.54072549  0.08844228     0.28100
H1110       H  0.76337609  0.29361169  0.06491580     0.28100
H1111       H  0.72778883  0.38406212  0.01893382     0.18700
H1112       H  0.77499996  0.46332308  0.11150003     0.18700
C1113       C  0.49995356  0.69104972  0.24546956    -0.07100
C1114       C  0.49326376  0.71568890  0.27988250    -0.18200
C1115       C  0.49009319  0.76663179  0.27969920     0.10100
C1116       C  0.49338626  0.79372101  0.24424166    -0.07000
C1117       C  0.49988002  0.76896238  0.20968856    -0.18300
C1118       C  0.50284815  0.71787429  0.20977110     0.10100
S1119       S  0.48202031  0.79516314  0.32571497    -0.33200
S1120       S  0.50967337  0.68864475  0.16317243    -0.33200
H1121       H  0.50250709  0.64136360  0.17338493     0.28100
H1122       H  0.49058193  0.84149533  0.31738589     0.28100
H1123       H  0.49166156  0.69574208  0.30774247     0.18700
H1124       H  0.50138544  0.78890220  0.18180181     0.18700
C1125       C  0.49203699  0.70259137  0.44575779    -0.07100
C1126       C  0.48863651  0.65132419  0.44319245    -0.18200
C1127       C  0.49795174  0.62185272  0.41398616     0.10100
C1128       C  0.51164499  0.64337608  0.38653394    -0.07000
C1129       C  0.51551537  0.69447790  0.39014544    -0.18300
C1130       C  0.50574617  0.72413822  0.41855861     0.10100
S1131       S  0.49100841  0.55754262  0.41298621    -0.33200
S1132       S  0.51067955  0.78967147  0.41663814    -0.33200
H1133       H  0.49048986  0.80328305  0.41898127     0.28100
H1134       H  0.48281931  0.56107071  0.37459412     0.28100
H1135       H  0.47829577  0.63390120  0.46382985     0.18700
H1136       H  0.52569536  0.71234852  0.36945126     0.18700
C1137       C  0.50397250  0.44958465  0.19385783    -0.07100
C1138       C  0.48534917  0.46620183  0.18017511    -0.18200
C1139       C  0.47394131  0.43859833  0.15318494     0.10100
C1140       C  0.48114027  0.39283285  0.13836009    -0.07000
C1141       C  0.49938979  0.37532817  0.15296161    -0.18300
C1142       C  0.51087825  0.40298059  0.17975373     0.10100
S1143       S  0.45008077  0.46361437  0.13973502    -0.33200
S1144       S  0.53440469  0.37654456  0.19357153    -0.33200
H1145       H  0.54532490  0.41706951  0.17866007     0.28100
H1146       H  0.44048660  0.41737097  0.13860324     0.28100
H1147       H  0.47943477  0.50114802  0.19069321     0.18700
H1148       H  0.50535920  0.34069127  0.14186208     0.18700
C1149       C  0.56718156  0.63285200  0.07848848    -0.07100
C1150       C  0.56862604  0.66803642  0.10916806    -0.18200
C1151       C  0.56862755  0.65408609  0.14935478     0.10100
C1152       C  0.56694429  0.60336340  0.15968337    -0.07000
C1153       C  0.56731816  0.56809141  0.12890166    -0.18300
C1154       C  0.56773577  0.58197617  0.08877647     0.10100
S1155       S  0.56978252  0.70337173  0.18540346    -0.33200
S1156       S  0.56758171  0.53243524  0.05280342    -0.33200
H1157       H  0.58444135  0.55038855  0.03223380     0.28100
H1158       H  0.55051140  0.69441772  0.20001478     0.28100
H1159       H  0.56882465  0.70712088  0.10193210     0.18700
H1160       H  0.56668781  0.52897954  0.13603789     0.18700
C1161       C  0.67849781  0.59711978  0.07485844    -0.07100
C1162       C  0.67494571  0.64758732  0.08251763    -0.18200
C1163       C  0.67425403  0.66632051  0.12150590     0.10100
C1164       C  0.67771899  0.63436599  0.15411734    -0.07000
C1165       C  0.67963719  0.58348801  0.14677540    -0.18300
C1166       C  0.68000913  0.56435011  0.10789315     0.10100
S1167       S  0.66871212  0.73116052  0.12753146    -0.33200
S1168       S  0.68263707  0.49805552  0.10185977    -0.33200
H1169       H  0.68689930  0.48647948  0.14178864     0.28100
H1170       H  0.65787692  0.72496839  0.16331886     0.28100
H1171       H  0.67318541  0.67321077  0.05785170     0.18700
H1172       H  0.68180499  0.55860647  0.17174789     0.18700
C1173       C  0.60275518  0.59744181  0.31118045    -0.07100
C1174       C  0.60567664  0.64914090  0.31140318    -0.18200
C1175       C  0.62481485  0.66995453  0.30947794     0.10100
C1176       C  0.64151336  0.63855257  0.30768882    -0.07000
C1177       C  0.63859926  0.58698897  0.31104800    -0.18300
C1178       C  0.61951654  0.56624919  0.31275316     0.10100
S1179       S  0.62768750  0.73639463  0.30883032    -0.33200
S1180       S  0.61756656  0.49984188  0.31617568    -0.33200
H1181       H  0.59925021  0.49968539  0.33681302     0.28100
H1182       H  0.60754901  0.74812890  0.31550971     0.28100
H1183       H  0.59289759  0.67336310  0.31049074     0.18700
H1184       H  0.65126101  0.56227633  0.31039748     0.18700
C1185       C  0.73199655  0.59112610  0.37961986    -0.07100
C1186       C  0.74972618  0.60993914  0.39560855    -0.18200
C1187       C  0.76114242  0.58264734  0.42273770     0.10100
C1188       C  0.75456444  0.53536258  0.43574492    -0.07000
C1189       C  0.73650346  0.51732972  0.42038988    -0.18300
C1190       C  0.72524161  0.54439928  0.39298021     0.10100
S1191       S  0.78412492  0.61028014  0.43843861    -0.33200
S1192       S  0.70215913  0.51733258  0.37696180    -0.33200
H1193       H  0.69177630  0.56252119  0.37568617     0.28100
H1194       H  0.79570978  0.57054472  0.42412637     0.28100
H1195       H  0.75534460  0.64531974  0.38538350     0.18700
H1196       H  0.73091280  0.48163173  0.42986363     0.18700
C1197       C  0.74954169  0.44307482  0.23699840    -0.07100
C1198       C  0.74344139  0.46820685  0.20259663    -0.18200
C1199       C  0.74095319  0.51936099  0.20281072     0.10100
C1200       C  0.74413846  0.54591370  0.23839326    -0.07000
C1201       C  0.75028812  0.52080278  0.27273605    -0.18300
C1202       C  0.75266652  0.46968057  0.27258652     0.10100
S1203       S  0.73393179  0.54893127  0.15676738    -0.33200
S1204       S  0.75915773  0.44020222  0.31895902    -0.33200
H1205       H  0.75076423  0.39424945  0.30918910     0.28100
H1206       H  0.74213036  0.59537346  0.16604486     0.28100
H1207       H  0.74184343  0.44841749  0.17470826     0.18700
H1208       H  0.75186515  0.54054198  0.30068394     0.18700
C1209       C  0.53778261  0.32260215  0.39017296    -0.07100
C1210       C  0.52272957  0.32986855  0.36210378    -0.18200
C1211       C  0.52173745  0.37336012  0.33963710     0.10100
C1212       C  0.53617995  0.41079800  0.34499497    -0.07000
C1213       C  0.55150604  0.40301012  0.37231959    -0.18300
C1214       C  0.55228703  0.36001604  0.39538554     0.10100
S1215       S  0.50256141  0.37730143  0.30266082    -0.33200
S1216       S  0.57152097  0.35690369  0.43240486    -0.33200
H1217       H  0.55868048  0.34040183  0.46300895     0.28100
H1218       H  0.49203056  0.41389087  0.32398922     0.28100
H1219       H  0.51168935  0.30129887  0.35743438     0.18700
H1220       H  0.56266829  0.43138008  0.37664097     0.18700
C1221       C  0.50427079  0.28363275  0.54342925    -0.07100
C1222       C  0.50522667  0.33564974  0.54254684    -0.18200
C1223       C  0.49387695  0.36509064  0.56907546     0.10100
C1224       C  0.48188081  0.34238152  0.59904923    -0.07000
C1225       C  0.48045164  0.29035058  0.59861419    -0.18300
C1226       C  0.49127500  0.26114391  0.57154061     0.10100
S1227       S  0.49488913  0.43109957  0.56187501    -0.33200
S1228       S  0.48824020  0.19498030  0.57571299    -0.33200
H1229       H  0.50856102  0.18408556  0.57034812     0.28100
H1230       H  0.47434464  0.43801007  0.56811914     0.28100
H1231       H  0.51442785  0.35365607  0.52009005     0.18700
H1232       H  0.47134358  0.27154785  0.62074404     0.18700
C1233       C  0.48963293  0.03295799  0.29845693    -0.07100
C1234       C  0.49303401  0.08364919  0.29227646    -0.18200
C1235       C  0.50426899  0.11178805  0.31918534     0.10100
C1236       C  0.51201958  0.08926175  0.35398513    -0.07000
C1237       C  0.50832921  0.03844211  0.36008584    -0.18300
C1238       C  0.49714902  0.01046598  0.33320960     0.10100
S1239       S  0.50865757  0.17563092  0.30638935    -0.33200
S1240       S  0.49211790  0.94687762  0.34628357    -0.33200
H1241       H  0.47337880  0.94444060  0.32823753     0.28100
H1242       H  0.52865632  0.17516376  0.31835242     0.28100
H1243       H  0.48745859  0.10112039  0.26555934     0.18700
H1244       H  0.51350445  0.02047392  0.38692258     0.18700
C1245       C  0.50368570  0.04203304  0.49209242    -0.07100
C1246       C  0.48390233  0.03586992  0.50351383    -0.18200
C1247       C  0.47615387  0.98846921  0.50895741     0.10100
C1248       C  0.48854755  0.94672398  0.50197986    -0.07000
C1249       C  0.50831847  0.95291704  0.49080491    -0.18300
C1250       C  0.51606508  0.00016304  0.48534828     0.10100
S1251       S  0.45078112  0.98225597  0.52684227    -0.33200
S1252       S  0.54142016  0.00565508  0.46729702    -0.33200
H1253       H  0.54659264  0.95533824  0.46979104     0.28100
H1254       H  0.44589316  0.03285220  0.52683755     0.28100
H1255       H  0.47476113  0.06816154  0.50889413     0.18700
H1256       H  0.51745785  0.92062010  0.48536368     0.18700
C1257       C  0.70873226  0.91303765  0.38339516    -0.07100
C1258       C  0.72208007  0.87514083  0.39316029    -0.18200
C1259       C  0.72131509  0.82924278  0.37425586     0.10100
C1260       C  0.70725799  0.82125445  0.34392301    -0.07000
C1261       C  0.69376672  0.85907643  0.33441910    -0.18300
C1262       C  0.69444405  0.90493844  0.35357821     0.10100
S1263       S  0.73791052  0.78169720  0.39168355    -0.33200
S1264       S  0.67741467  0.95223204  0.33728536    -0.33200
H1265       H  0.69049586  0.99207027  0.34336801     0.28100
H1266       H  0.72383425  0.74350602  0.38835021     0.28100
H1267       H  0.73273823  0.88069717  0.41688946     0.18700
H1268       H  0.68312463  0.85361343  0.31068116     0.18700
C1269       C  0.64288589  0.09555836  0.42490303    -0.07100
C1270       C  0.63962857  0.14664178  0.41869293    -0.18200
C1271       C  0.62042230  0.16694478  0.41842236     0.10100
C1272       C  0.60390392  0.13602285  0.42504045    -0.07000
C1273       C  0.60702123  0.08461907  0.42858461    -0.18300
C1274       C  0.62618721  0.06413621  0.42821133     0.10100
S1275       S  0.61790472  0.23242604  0.40956766    -0.33200
S1276       S  0.62827591  0.99783318  0.43231101    -0.33200
H1277       H  0.64524769  0.99419357  0.40759344     0.28100
H1278       H  0.59912073  0.22942010  0.39159119     0.28100
H1279       H  0.65215827  0.17150370  0.41555543     0.18700
H1280       H  0.59443798  0.06021957  0.43323983     0.18700
C1281       C  0.75438445  0.20419688  0.28933597    -0.07100
C1282       C  0.75163225  0.15327597  0.28314535    -0.18200
C1283       C  0.74067638  0.12423938  0.31033188     0.10100
C1284       C  0.73265690  0.14611559  0.34542879    -0.07000
C1285       C  0.73517047  0.19747147  0.35083727    -0.18300
C1286       C  0.74610051  0.22626268  0.32380789     0.10100
S1287       S  0.73696404  0.06019099  0.29754805    -0.33200
S1288       S  0.75004619  0.29031368  0.33660895    -0.33200
H1289       H  0.76930197  0.29349628  0.32010307     0.28100
H1290       H  0.71706935  0.05909419  0.31093073     0.28100
H1291       H  0.75757562  0.13625609  0.25632477     0.18700
H1292       H  0.72953186  0.21527239  0.37757802     0.18700
C1293       C  0.74663448  0.18927422  0.48521520    -0.07100
C1294       C  0.73763972  0.21875148  0.51490035    -0.18200
C1295       C  0.73897381  0.27016880  0.51419177     0.10100
C1296       C  0.75092237  0.29295161  0.48464605    -0.07000
C1297       C  0.76030893  0.26334818  0.45542267    -0.18300
C1298       C  0.75884872  0.21202504  0.45611868     0.10100
S1299       S  0.72487969  0.30523471  0.55076378    -0.33200
S1300       S  0.77338579  0.17836729  0.41970172    -0.33200
H1301       H  0.77944247  0.14192160  0.44701740     0.28100
H1302       H  0.71858515  0.26519585  0.57453534     0.28100
H1303       H  0.72850617  0.20141216  0.53760450     0.18700
H1304       H  0.76992245  0.28016018  0.43312573     0.18700
C1305       C  0.53657462  0.82097575  0.88881113    -0.07100
C1306       C  0.55349329  0.85152996  0.88929446    -0.18200
C1307       C  0.55397847  0.89678596  0.86900352     0.10100
C1308       C  0.53722226  0.91220478  0.84693371    -0.07000
C1309       C  0.52036639  0.88161798  0.84634034    -0.18300
C1310       C  0.51996815  0.83619474  0.86621830     0.10100
S1311       S  0.57616357  0.93363745  0.87405628    -0.33200
S1312       S  0.49821826  0.79845541  0.85926017    -0.33200
H1313       H  0.50929226  0.75490223  0.85309491     0.28100
H1314       H  0.56591826  0.97881581  0.87799297     0.28100
H1315       H  0.56629924  0.84096169  0.90672031     0.18700
H1316       H  0.50760672  0.89210648  0.82876501     0.18700
C1317       C  0.49454720  0.29096488  0.73982130    -0.07100
C1318       C  0.50286739  0.26774380  0.70620699    -0.18200
C1319       C  0.50661982  0.21706879  0.70623628     0.10100
C1320       C  0.50204977  0.18901379  0.74070239    -0.07000
C1321       C  0.49379230  0.21242523  0.77426383    -0.18300
C1322       C  0.49056066  0.26316442  0.77457637     0.10100
S1323       S  0.51708444  0.19037035  0.66141281    -0.33200
S1324       S  0.48199432  0.29067182  0.82067751    -0.33200
H1325       H  0.48966697  0.33798253  0.81253595     0.28100
H1326       H  0.50936592  0.14274183  0.66787181     0.28100
H1327       H  0.50536189  0.28856813  0.67893170     0.18700
H1328       H  0.49126302  0.19181365  0.80160678     0.18700
C1329       C  0.51353389  0.14666322  0.88416975    -0.07100
C1330       C  0.49901619  0.12389025  0.90853081    -0.18200
C1331       C  0.48878265  0.14986660  0.93884119     0.10100
C1332       C  0.49235151  0.20112866  0.94487089    -0.07000
C1333       C  0.50717719  0.22367944  0.92122012    -0.18300
C1334       C  0.51789925  0.19733456  0.89181136     0.10100
S1335       S  0.47181079  0.11450373  0.96945998    -0.33200
S1336       S  0.53708408  0.23118047  0.86567390    -0.33200
H1337       H  0.55125934  0.19310933  0.86915319     0.28100
H1338       H  0.47852002  0.13483962  0.00557027     0.28100
H1339       H  0.49543201  0.08527106  0.90389353     0.18700
H1340       H  0.51048311  0.26253778  0.92554214     0.18700
C1341       C  0.56866789  0.10194871  0.65766267    -0.07100
C1342       C  0.56959400  0.06722793  0.62658245    -0.18200
C1343       C  0.57016079  0.08179271  0.58647213     0.10100
C1344       C  0.56880210  0.13279061  0.57680854    -0.07000
C1345       C  0.56994343  0.16753100  0.60787540    -0.18300
C1346       C  0.57031663  0.15288229  0.64791671     0.10100
S1347       S  0.57179609  0.03408763  0.54879209    -0.33200
S1348       S  0.57279688  0.20143351  0.68440673    -0.33200
H1349       H  0.55469141  0.19127682  0.70366885     0.28100
H1350       H  0.57508494  0.99380117  0.57446680     0.28100
H1351       H  0.56927257  0.02815658  0.63377270     0.18700
H1352       H  0.56994386  0.20673555  0.60102670     0.18700
C1353       C  0.50375541  0.95151523  0.69168181    -0.07100
C1354       C  0.50244795  0.89986475  0.69564185    -0.18200
C1355       C  0.49059222  0.87116840  0.67006933     0.10100
C1356       C  0.48015749  0.89395961  0.63826272    -0.07000
C1357       C  0.48132905  0.94585601  0.63483945    -0.18300
C1358       C  0.49294848  0.97449393  0.66071082     0.10100
S1359       S  0.48893490  0.80595215  0.68083112    -0.33200
S1360       S  0.49425102  0.04003825  0.65095695    -0.33200
H1361       H  0.51430538  0.04521453  0.66177795     0.28100
H1362       H  0.46855653  0.80262062  0.67203237     0.28100
H1363       H  0.51021389  0.88178287  0.71981286     0.18700
H1364       H  0.47387131  0.96441360  0.61053349     0.18700
C1365       C  0.70738035  0.40859427  0.88549408    -0.07100
C1366       C  0.72196246  0.40233158  0.85568528    -0.18200
C1367       C  0.72301264  0.35883146  0.83294684     0.10100
C1368       C  0.70919577  0.32038114  0.84036770    -0.07000
C1369       C  0.69450382  0.32683940  0.86983259    -0.18300
C1370       C  0.69367673  0.36984609  0.89292557     0.10100
S1371       S  0.74119491  0.35448658  0.79295471    -0.33200
S1372       S  0.67558578  0.37134015  0.93293039    -0.33200
H1373       H  0.68881998  0.39100036  0.96104796     0.28100
H1374       H  0.75094983  0.39951601  0.80041943     0.28100
H1375       H  0.73237025  0.43207895  0.84980693     0.18700
H1376       H  0.68392550  0.29741149  0.87576474     0.18700
C1377       C  0.67889594  0.12733448  0.65610715    -0.07100
C1378       C  0.67670356  0.16245178  0.62562347    -0.18200
C1379       C  0.67766180  0.14905092  0.58539862     0.10100
C1380       C  0.68108765  0.09887859  0.57481781    -0.07000
C1381       C  0.68170185  0.06331809  0.60539987    -0.18300
C1382       C  0.68024119  0.07667749  0.64558388     0.10100
S1383       S  0.67521457  0.19866028  0.54984013    -0.33200
S1384       S  0.68139341  0.02719866  0.68150946    -0.33200
H1385       H  0.66369799  0.04174709  0.70098822     0.28100
H1386       H  0.69399484  0.19046787  0.53253824     0.28100
H1387       H  0.67513007  0.20126394  0.63314089     0.18700
H1388       H  0.68370794  0.02458415  0.59810160     0.18700
C1389       C  0.64285617  0.13314699  0.80850434    -0.07100
C1390       C  0.63984566  0.08146814  0.80884089    -0.18200
C1391       C  0.62065659  0.06088300  0.80830517     0.10100
C1392       C  0.60399336  0.09250962  0.80831559    -0.07000
C1393       C  0.60704162  0.14403986  0.81080862    -0.18300
C1394       C  0.62615876  0.16455247  0.81068075     0.10100
S1395       S  0.61768419  0.99446804  0.80677444    -0.33200
S1396       S  0.62819630  0.23102904  0.81227935    -0.33200
H1397       H  0.64631822  0.23174515  0.83289320     0.28100
H1398       H  0.63790964  0.98234483  0.81078229     0.28100
H1399       H  0.65257016  0.05711954  0.80696102     0.18700
H1400       H  0.59443222  0.16888042  0.81078696     0.18700
C1401       C  0.75958319  0.33860808  0.62609484    -0.07100
C1402       C  0.76610114  0.28998593  0.63357347    -0.18200
C1403       C  0.75677194  0.25956371  0.66207586     0.10100
C1404       C  0.74083590  0.27826115  0.68570918    -0.07000
C1405       C  0.73456539  0.32713778  0.67883535    -0.18300
C1406       C  0.74332059  0.35681967  0.64912160     0.10100
S1407       S  0.76530594  0.19640693  0.66463855    -0.33200
S1408       S  0.73189695  0.41609672  0.64080316    -0.33200
H1409       H  0.72917773  0.40778834  0.59977553     0.28100
H1410       H  0.74602506  0.17617426  0.66412094     0.28100
H1411       H  0.77817961  0.27459925  0.61596810     0.18700
H1412       H  0.72234902  0.34225376  0.69620015     0.18700
C1413       C  0.20950104  0.42068486  0.39589489    -0.07100
C1414       C  0.19200581  0.39213063  0.39613910    -0.18200
C1415       C  0.19069054  0.34727296  0.37528567     0.10100
C1416       C  0.20711239  0.33078323  0.35219615    -0.07000
C1417       C  0.22459872  0.35939446  0.35185335    -0.18300
C1418       C  0.22613880  0.40317035  0.37392078     0.10100
S1419       S  0.16833394  0.31065149  0.38056246    -0.33200
S1420       S  0.25012965  0.43278870  0.37452951    -0.33200
H1421       H  0.25019384  0.43879147  0.41624013     0.28100
H1422       H  0.15798955  0.34241572  0.40672103     0.28100
H1423       H  0.17924864  0.40482132  0.41329993     0.18700
H1424       H  0.23743370  0.34719359  0.33462896     0.18700
C1425       C  0.23500223  0.46201679  0.55658033    -0.07100
C1426       C  0.22855987  0.41398038  0.56551456    -0.18200
C1427       C  0.23877384  0.38401622  0.59282468     0.10100
C1428       C  0.25641800  0.40163519  0.61124338    -0.07000
C1429       C  0.26275984  0.44994899  0.60196679    -0.18300
C1430       C  0.25220638  0.48017252  0.57547567     0.10100
S1431       S  0.22758364  0.32512542  0.60425376    -0.33200
S1432       S  0.26097784  0.54250125  0.56814999    -0.33200
H1433       H  0.24187869  0.56343433  0.56540403     0.28100
H1434       H  0.22752484  0.33302905  0.64573586     0.28100
H1435       H  0.21539796  0.39968116  0.55114006     0.18700
H1436       H  0.27581541  0.46494880  0.61623591     0.18700
C1437       C  0.22829877  0.65101272  0.35056030    -0.07100
C1438       C  0.22457413  0.70203068  0.34763813    -0.18200
C1439       C  0.23586374  0.73242498  0.32198326     0.10100
C1440       C  0.25086903  0.71137778  0.29717033    -0.07000
C1441       C  0.25415050  0.66013402  0.29942138    -0.18300
C1442       C  0.24311370  0.63001561  0.32548392     0.10100
S1443       S  0.23155432  0.79818320  0.32524010    -0.33200
S1444       S  0.24881059  0.56478954  0.32552707    -0.33200
H1445       H  0.22957363  0.54933525  0.33666272     0.28100
H1446       H  0.25182726  0.81098674  0.32325446     0.28100
H1447       H  0.21389684  0.71903893  0.36776401     0.18700
H1448       H  0.26532515  0.64312433  0.28041571     0.18700
C1449       C  0.25045978  0.68642625  0.50190972    -0.07100
C1450       C  0.24133542  0.71351465  0.53287967    -0.18200
C1451       C  0.24329562  0.76524387  0.53532504     0.10100
C1452       C  0.25490478  0.79034747  0.50633142    -0.07000
C1453       C  0.26464116  0.76229968  0.47651925    -0.18300
C1454       C  0.26299689  0.71110150  0.47476108     0.10100
S1455       S  0.22993909  0.79814732  0.57402672    -0.33200
S1456       S  0.27507222  0.67966120  0.43364225    -0.33200
H1457       H  0.27475968  0.63253447  0.45143976     0.28100
H1458       H  0.22469117  0.75640131  0.59691063     0.28100
H1459       H  0.23090499  0.69476219  0.55250310     0.18700
H1460       H  0.27380065  0.78040897  0.45418044     0.18700
C1461       C  0.03397072  0.82178412  0.38042432    -0.07100
C1462       C  0.01967891  0.85851715  0.38838918    -0.18200
C1463       C  0.02010049  0.90418923  0.36869490     0.10100
C1464       C  0.03481986  0.91350434  0.33928036    -0.07000
C1465       C  0.04885456  0.87631466  0.33061999    -0.18300
C1466       C  0.04841198  0.83054352  0.35034708     0.10100
S1467       S  0.00222408  0.95007821  0.38434038    -0.33200
S1468       S  0.06588380  0.78398643  0.33407059    -0.33200
H1469       H  0.05303242  0.74366113  0.34064640     0.28100
H1470       H  0.01591894  0.98935906  0.38313394     0.28100
H1471       H  0.00852551  0.85246215  0.41140807     0.18700
H1472       H  0.05987047  0.88230149  0.30732683     0.18700
C1473       C  0.10020931  0.63244713  0.42379400    -0.07100
C1474       C  0.10360985  0.58433547  0.43848926    -0.18200
C1475       C  0.12284907  0.56428512  0.44061578     0.10100
C1476       C  0.13929256  0.59284594  0.42783218    -0.07000
C1477       C  0.13555847  0.63925127  0.40990029    -0.18300
C1478       C  0.11634345  0.65927627  0.40791852     0.10100
S1479       S  0.12556190  0.50486864  0.46419717    -0.33200
S1480       S  0.11348684  0.71967723  0.38594914    -0.33200
H1481       H  0.09357427  0.71330730  0.37480030     0.28100
H1482       H  0.13792159  0.48592204  0.43374218     0.28100
H1483       H  0.09127351  0.56321125  0.45059739     0.18700
H1484       H  0.14790682  0.66153467  0.39936515     0.18700
C1485       C  0.00922552  0.59270469  0.34736422    -0.07100
C1486       C  0.01242504  0.54139370  0.34416908    -0.18200
C1487       C  0.00220432  0.51226647  0.31652423     0.10100
C1488       C  0.98825866  0.53423949  0.29048283    -0.07000
C1489       C  0.98524924  0.58557324  0.29296420    -0.18300
C1490       C  0.99572953  0.61498915  0.32024532     0.10100
S1491       S  0.00695640  0.44666920  0.31782915    -0.33200
S1492       S  0.99101584  0.68057680  0.31829181    -0.33200
H1493       H  0.01132870  0.69297076  0.31611270     0.28100
H1494       H  0.98673702  0.43384834  0.31503993     0.28100
H1495       H  0.02250468  0.52313454  0.36437895     0.18700
H1496       H  0.97500597  0.60324436  0.27274258     0.18700
C1497       C  0.99168097  0.44362422  0.48782443    -0.07100
C1498       C  0.99990733  0.46625828  0.52148167    -0.18200
C1499       C  0.00273608  0.51733182  0.52290708     0.10100
C1500       C  0.99775760  0.54665465  0.48946786    -0.07000
C1501       C  0.98950078  0.52395852  0.45585333    -0.18300
C1502       C  0.98674213  0.47289956  0.45442137     0.10100
S1503       S  0.01243231  0.54286998  0.56855735    -0.33200
S1504       S  0.97715557  0.44712382  0.40883338    -0.33200
H1505       H  0.98579741  0.40011578  0.41371178     0.28100
H1506       H  0.00383459  0.58994912  0.56381040     0.28100
H1507       H  0.00292527  0.44455233  0.54794364     0.18700
H1508       H  0.98641445  0.54558266  0.42938945     0.18700
C1509       C  0.20686382  0.82628028  0.85710261    -0.07100
C1510       C  0.19132605  0.86026887  0.85163153    -0.18200
C1511       C  0.19175843  0.90698621  0.86927060     0.10100
C1512       C  0.20785935  0.91990414  0.89395012    -0.07000
C1513       C  0.22326399  0.88570932  0.89982050    -0.18300
C1514       C  0.22281000  0.83897878  0.88228884     0.10100
S1515       S  0.17183117  0.94901612  0.85734957    -0.33200
S1516       S  0.24253150  0.79670952  0.89497994    -0.33200
H1517       H  0.23004288  0.75504987  0.89726932     0.28100
H1518       H  0.18398902  0.99136149  0.85588826     0.28100
H1519       H  0.17916382  0.85138527  0.83190088     0.18700
H1520       H  0.23537219  0.89455066  0.91970466     0.18700
C1521       C  0.18004203  0.64785720  0.66241147    -0.07100
C1522       C  0.18114771  0.68573595  0.63361655    -0.18200
C1523       C  0.18063455  0.67554439  0.59283119     0.10100
C1524       C  0.17959704  0.62602099  0.57974498    -0.07000
C1525       C  0.17685960  0.58839769  0.60821961    -0.18300
C1526       C  0.17705019  0.59855631  0.64918250     0.10100
S1527       S  0.18109334  0.72756580  0.55915443    -0.33200
S1528       S  0.17416890  0.54641002  0.68224998    -0.33200
H1529       H  0.19243892  0.55412684  0.70105054     0.28100
H1530       H  0.16851330  0.70560219  0.53090215     0.28100
H1531       H  0.18269286  0.72399432  0.64280976     0.18700
H1532       H  0.17571718  0.55018071  0.59861825     0.18700
C1533       C  0.24792965  0.44635517  0.75099901    -0.07100
C1534       C  0.25666750  0.47495856  0.78128679    -0.18200
C1535       C  0.25511830  0.52635672  0.78177201     0.10100
C1536       C  0.24388798  0.55031346  0.75208949    -0.07000
C1537       C  0.23545530  0.52173088  0.72153017    -0.18300
C1538       C  0.23646517  0.47035854  0.72177837     0.10100
S1539       S  0.26803606  0.55848584  0.82086210    -0.33200
S1540       S  0.22235350  0.43836779  0.68441068    -0.33200
H1541       H  0.21518099  0.40221029  0.71110556     0.28100
H1542       H  0.27592035  0.59467089  0.79498625     0.28100
H1543       H  0.26578641  0.45732957  0.80363960     0.18700
H1544       H  0.22680737  0.53938396  0.69851584     0.18700
C1545       C  0.24990520  0.54295733  0.95485941    -0.07100
C1546       C  0.23487320  0.52024972  0.93239734    -0.18200
C1547       C  0.22418385  0.54614804  0.90317543     0.10100
C1548       C  0.22885068  0.59625835  0.89449168    -0.07000
C1549       C  0.24312392  0.61972362  0.91849116    -0.18300
C1550       C  0.25344092  0.59418812  0.94862705     0.10100
S1551       S  0.20460515  0.51276798  0.87864507    -0.33200
S1552       S  0.27076570  0.62832866  0.97903598    -0.33200
H1553       H  0.26580398  0.67592033  0.96533168     0.28100
H1554       H  0.19123553  0.55286552  0.87943468     0.28100
H1555       H  0.23143556  0.48156813  0.93738978     0.18700
H1556       H  0.24672784  0.65811636  0.91283816     0.18700
C1557       C  0.24176322  0.79049297  0.70187827    -0.07100
C1558       C  0.24082844  0.84247941  0.70231554    -0.18200
C1559       C  0.25170267  0.87154119  0.67478302     0.10100
C1560       C  0.26360236  0.84853265  0.64471924    -0.07000
C1561       C  0.26503946  0.79649579  0.64550682    -0.18300
C1562       C  0.25410298  0.76760186  0.67278303     0.10100
S1563       S  0.24989593  0.93769375  0.68051400    -0.33200
S1564       S  0.25526072  0.70140247  0.66634229    -0.33200
H1565       H  0.23481712  0.69370293  0.67327896     0.28100
H1566       H  0.27035426  0.94584640  0.67414469     0.28100
H1567       H  0.23183152  0.86078908  0.72487442     0.18700
H1568       H  0.27375382  0.77754060  0.62287337     0.18700
C1569       C  0.03668467  0.41429135  0.84222436    -0.07100
C1570       C  0.01998053  0.38323612  0.84093090    -0.18200
C1571       C  0.01966993  0.33744166  0.86014933     0.10100
C1572       C  0.03630827  0.32202599  0.88256685    -0.07000
C1573       C  0.05311339  0.35299503  0.88367231    -0.18300
C1574       C  0.05344379  0.39883428  0.86423130     0.10100
S1575       S  0.99783182  0.30005110  0.85294812    -0.33200
S1576       S  0.07538833  0.43631532  0.87032795    -0.33200
H1577       H  0.06483396  0.48091327  0.87523106     0.28100
H1578       H  0.00863732  0.25595128  0.84881327     0.28100
H1579       H  0.00719107  0.39379904  0.82343668     0.18700
H1580       H  0.06592830  0.34233857  0.90105827     0.18700
C1581       C  0.06598914  0.60236802  0.65227239    -0.07100
C1582       C  0.06596002  0.65349180  0.64474728    -0.18200
C1583       C  0.06551657  0.67224859  0.60570412     0.10100
C1584       C  0.06474477  0.63894584  0.57304729    -0.07000
C1585       C  0.06660816  0.58798707  0.58065272    -0.18300
C1586       C  0.06756380  0.56949746  0.61952953     0.10100
S1587       S  0.06573860  0.73863755  0.59868778    -0.33200
S1588       S  0.07066611  0.50355246  0.62498121    -0.33200
H1589       H  0.08311613  0.50724866  0.65836656     0.28100
H1590       H  0.06676403  0.75207261  0.63914603     0.28100
H1591       H  0.06525008  0.67896410  0.66965956     0.18700
H1592       H  0.06670347  0.56182834  0.55611794     0.18700
C1593       C  0.14060496  0.64128444  0.80990909    -0.07100
C1594       C  0.13804342  0.58986446  0.80492886    -0.18200
C1595       C  0.11907073  0.56835014  0.80216479     0.10100
C1596       C  0.10204877  0.59876023  0.80482798    -0.07000
C1597       C  0.10465775  0.64976380  0.81239080    -0.18300
C1598       C  0.12360892  0.67118654  0.81488302     0.10100
S1599       S  0.11689330  0.50225803  0.79519532    -0.33200
S1600       S  0.12508430  0.73673651  0.82427158    -0.33200
H1601       H  0.14340828  0.73500239  0.84409994     0.28100
H1602       H  0.13736366  0.49156206  0.79439342     0.28100
H1603       H  0.15105810  0.56662975  0.80123882     0.18700
H1604       H  0.09180450  0.67380536  0.81482882     0.18700
C1605       C  0.98118555  0.39406854  0.62996398    -0.07100
C1606       C  0.99877426  0.37513015  0.64652090    -0.18200
C1607       C  0.00937578  0.40085849  0.67600109     0.10100
C1608       C  0.00287619  0.44830729  0.68898221    -0.07000
C1609       C  0.98495838  0.46654135  0.67306144    -0.18300
C1610       C  0.97398252  0.43991322  0.64471551     0.10100
S1611       S  0.03085343  0.37011651  0.69596704    -0.33200
S1612       S  0.95055219  0.46605873  0.62968541    -0.33200
H1613       H  0.94066231  0.42024848  0.62777604     0.28100
H1614       H  0.02476312  0.37694051  0.73589823     0.28100
H1615       H  0.00456571  0.33999182  0.63603464     0.18700
H1616       H  0.97924011  0.50201983  0.68292481     0.18700
C1617       C  0.95618942  0.57382577  0.13509067    -0.07100
C1618       C  0.97116856  0.60881744  0.14213186    -0.18200
C1619       C  0.97162432  0.65418985  0.12196658     0.10100
C1620       C  0.95665148  0.66516504  0.09403087    -0.07000
C1621       C  0.94149341  0.63037051  0.08741511    -0.18300
C1622       C  0.94128149  0.58470246  0.10703042     0.10100
S1623       S  0.99098684  0.69809645  0.13351822    -0.33200
S1624       S  0.92227108  0.54113604  0.09315476    -0.33200
H1625       H  0.93448239  0.49905142  0.09631197     0.28100
H1626       H  0.00055345  0.66991189  0.16293216     0.28100
H1627       H  0.98237256  0.60086778  0.16417226     0.18700
H1628       H  0.93014313  0.63789394  0.06553416     0.18700
C1629       C  0.98271898  0.89907999  0.12931556    -0.07100
C1630       C  0.98612709  0.95001752  0.12304039    -0.18200
C1631       C  0.99743701  0.97843456  0.14942946     0.10100
C1632       C  0.00552702  0.95629318  0.18381162    -0.07000
C1633       C  0.00195058  0.90579180  0.19072663    -0.18300
C1634       C  0.99036490  0.87738731  0.16451161     0.10100
S1635       S  0.00175519  0.04235002  0.13637808    -0.33200
S1636       S  0.98492287  0.81481628  0.17926188    -0.33200
H1637       H  0.96529632  0.81549804  0.16509354     0.28100
H1638       H  0.02083532  0.04533404  0.15299973     0.28100
H1639       H  0.98067412  0.96776410  0.09635499     0.18700
H1640       H  0.00752095  0.88882548  0.21764873     0.18700
C1641       C  0.99985104  0.04605998  0.99099121    -0.07100
C1642       C  0.00974674  0.01423671  0.01752463    -0.18200
C1643       C  0.00722193  0.96317369  0.01603086     0.10100
C1644       C  0.99345222  0.94293182  0.98901770    -0.07000
C1645       C  0.98364058  0.97479787  0.96242541    -0.18300
C1646       C  0.98596828  0.02583982  0.96428972     0.10100
S1647       S  0.02239923  0.92663402  0.04889709    -0.33200
S1648       S  0.97020673  0.06250701  0.93265113    -0.33200
H1649       H  0.96609093  0.09792231  0.96240789     0.28100
H1650       H  0.02701196  0.89103351  0.01959194     0.28100
H1651       H  0.02044909  0.02894975  0.03827763     0.18700
H1652       H  0.97297832  0.96012635  0.94158985     0.18700
C1653       C  0.00962786  0.64563444  0.87868050    -0.07100
C1654       C  0.01355925  0.69659100  0.88279180    -0.18200
C1655       C  0.00338398  0.72619179  0.91070686     0.10100
C1656       C  0.98912353  0.70475913  0.93689418    -0.07000
C1657       C  0.98531758  0.65384372  0.93336356    -0.18300
C1658       C  0.99510565  0.62440409  0.90466537     0.10100
S1659       S  0.00862440  0.79165197  0.90955138    -0.33200
S1660       S  0.98772065  0.56045918  0.90245655    -0.33200
H1661       H  0.98121490  0.56425667  0.86278153     0.28100
H1662       H  0.98857640  0.80607882  0.91335713     0.28100
H1663       H  0.02422330  0.71429349  0.86304540     0.18700
H1664       H  0.97449378  0.63667585  0.95307006     0.18700
C1665       C  0.78727127  0.07115860  0.09678497    -0.07100
C1666       C  0.80004419  0.10963761  0.08491106    -0.18200
C1667       C  0.79921289  0.15603308  0.10324400     0.10100
C1668       C  0.78552382  0.16426380  0.13471868    -0.07000
C1669       C  0.77290231  0.12564075  0.14697639    -0.18300
C1670       C  0.77385961  0.07907135  0.12883859     0.10100
S1671       S  0.81532555  0.20377451  0.08377900    -0.33200
S1672       S  0.75849065  0.03059324  0.14946737    -0.33200
H1673       H  0.77254980  0.99282969  0.14295673     0.28100
H1674       H  0.80188485  0.24289131  0.09045772     0.28100
H1675       H  0.81017627  0.10423564  0.05999676     0.18700
H1676       H  0.76281177  0.13113693  0.17194557     0.18700
C1677       C  0.73249157  0.08765243  0.88224696    -0.07100
C1678       C  0.74670665  0.11167676  0.90600471    -0.18200
C1679       C  0.75664848  0.08707630  0.93692430     0.10100
C1680       C  0.75291321  0.03626688  0.94421040    -0.07000
C1681       C  0.73812957  0.01278573  0.92168500    -0.18300
C1682       C  0.72786837  0.03749745  0.89119223     0.10100
S1683       S  0.77343722  0.12336199  0.96659233    -0.33200
S1684       S  0.70880501  0.00382248  0.86480548    -0.33200
H1685       H  0.71326829  0.95645729  0.87964634     0.28100
H1686       H  0.76712303  0.10281732  0.00316614     0.28100
H1687       H  0.75036056  0.15007341  0.90024151     0.18700
H1688       H  0.73477923  0.97430937  0.92760891     0.18700
C1689       C  0.85273221  0.89033264  0.05831965    -0.07100
C1690       C  0.85578736  0.83893952  0.06263133    -0.18200
C1691       C  0.87490094  0.81860578  0.06372583     0.10100
C1692       C  0.89149140  0.85008967  0.06048039    -0.07000
C1693       C  0.88845075  0.90170779  0.06005865    -0.18300
C1694       C  0.86932977  0.92208273  0.05900716     0.10100
S1695       S  0.87712527  0.75234175  0.06815320    -0.33200
S1696       S  0.86716991  0.98853371  0.05751898    -0.33200
H1697       H  0.84893686  0.99042025  0.07840226     0.28100
H1698       H  0.89563954  0.75307961  0.08733079     0.28100
H1699       H  0.84321062  0.81389629  0.06293018     0.18700
H1700       H  0.90107841  0.92649835  0.05810598     0.18700
C1701       C  0.74247120  0.78619582  0.19235935    -0.07100
C1702       C  0.75742008  0.76288337  0.16946199    -0.18200
C1703       C  0.76893963  0.78901788  0.14148074     0.10100
C1704       C  0.76486110  0.83964768  0.13400045    -0.07000
C1705       C  0.75077186  0.86361991  0.15868957    -0.18300
C1706       C  0.74001740  0.83793634  0.18823132     0.10100
S1707       S  0.78878171  0.75536188  0.11713451    -0.33200
S1708       S  0.72406678  0.87385587  0.22059918    -0.33200
H1709       H  0.72943625  0.84836223  0.25550107     0.28100
H1710       H  0.80227701  0.79513721  0.11826556     0.28100
H1711       H  0.76022850  0.72373706  0.17333213     0.18700
H1712       H  0.74782335  0.90265035  0.15469167     0.18700
C1713       C  0.75024735  0.79468304  0.98976250    -0.07100
C1714       C  0.75692176  0.76832597  0.95596579    -0.18200
C1715       C  0.75391914  0.71744224  0.95229268     0.10100
C1716       C  0.74342285  0.69179996  0.98261997    -0.07000
C1717       C  0.73675465  0.71824938  0.01632183    -0.18300
C1718       C  0.73958482  0.76908657  0.01982160     0.10100
S1719       S  0.76368485  0.68829830  0.90795446    -0.33200
S1720       S  0.72948492  0.79815901  0.06390985    -0.33200
H1721       H  0.72010000  0.83616520  0.04242954     0.28100
H1722       H  0.77320064  0.65025328  0.92913410     0.28100
H1723       H  0.76542986  0.78718370  0.93292484     0.18700
H1724       H  0.72838404  0.69943673  0.03956578     0.18700
C1725       C  0.95762565  0.07423908  0.63638679    -0.07100
C1726       C  0.93997032  0.08854388  0.61742456    -0.18200
C1727       C  0.93903901  0.13089851  0.59345687     0.10100
C1728       C  0.95599467  0.16180054  0.58922441    -0.07000
C1729       C  0.97372444  0.14701065  0.60751368    -0.18300
C1730       C  0.97478641  0.10411582  0.63076278     0.10100
S1731       S  0.91600185  0.14118286  0.56766102    -0.33200
S1732       S  0.99851227  0.09119779  0.65295557    -0.33200
H1733       H  0.99048705  0.08758588  0.69164761     0.28100
H1734       H  0.92533192  0.14817167  0.53030499     0.28100
H1735       H  0.92676767  0.06584660  0.62044444     0.18700
H1736       H  0.98695809  0.16956598  0.60430421     0.18700
C1737       C  0.98790152  0.03187302  0.79385812    -0.07100
C1738       C  0.99208053  0.08212194  0.78728633    -0.18200
C1739       C  0.00365518  0.10981771  0.81400271     0.10100
C1740       C  0.01062190  0.08792718  0.84975318    -0.07000
C1741       C  0.00627323  0.03744784  0.85622507    -0.18300
C1742       C  0.99500154  0.00960875  0.82914162     0.10100
S1743       S  0.00989454  0.17186845  0.79909936    -0.33200
S1744       S  0.98925003  0.94653590  0.84258438    -0.33200
H1745       H  0.97065158  0.94502529  0.82387867     0.28100
H1746       H  0.02932695  0.17013425  0.81421793     0.28100
H1747       H  0.98687655  0.09966258  0.76031304     0.18700
H1748       H  0.01099878  0.01971271  0.88352999     0.18700
C1749       C  0.92514291  0.88503187  0.82502373    -0.07100
C1750       C  0.92659424  0.92017308  0.85580423    -0.18200
C1751       C  0.92673925  0.90635999  0.89597957     0.10100
C1752       C  0.92612174  0.85558148  0.90644399    -0.07000
C1753       C  0.92321550  0.82066653  0.87596326    -0.18300
C1754       C  0.92220408  0.83475477  0.83576223     0.10100
S1755       S  0.92932943  0.95559408  0.93174928    -0.33200
S1756       S  0.91799680  0.78615231  0.80007760    -0.33200
H1757       H  0.90268878  0.81200122  0.78068394     0.28100
H1758       H  0.91190115  0.94242245  0.95274921     0.28100
H1759       H  0.92832811  0.95900909  0.84861410     0.18700
H1760       H  0.92210234  0.78175545  0.88339983     0.18700
C1761       C  0.97978964  0.84484397  0.59582876    -0.07100
C1762       C  0.99603346  0.86601607  0.57521488    -0.18200
C1763       C  0.00642657  0.84024154  0.54506209     0.10100
C1764       C  0.00120396  0.79070542  0.53579165    -0.07000
C1765       C  0.98429714  0.77065369  0.55501444    -0.18300
C1766       C  0.97337802  0.79722093  0.58379020     0.10100
S1767       S  0.02586984  0.87348370  0.51930199    -0.33200
S1768       S  0.95113360  0.76826597  0.60310205    -0.33200
H1769       H  0.94002228  0.81241373  0.60422242     0.28100
H1770       H  0.01961239  0.85864781  0.48123841     0.28100
H1771       H  0.00098401  0.90284755  0.58304804     0.18700
H1772       H  0.97939985  0.73362086  0.54763215     0.18700
C1773       C  0.99882264  0.69073633  0.73844902    -0.07100
C1774       C  0.99083449  0.71398613  0.77238697    -0.18200
C1775       C  0.98738642  0.76479521  0.77286759     0.10100
C1776       C  0.99152287  0.79307063  0.73834013    -0.07000
C1777       C  0.99919327  0.76968196  0.70413467    -0.18300
C1778       C  0.00275991  0.71874778  0.70372305     0.10100
S1779       S  0.97793688  0.79155339  0.81860187    -0.33200
S1780       S  0.01178317  0.68946747  0.65848049    -0.33200
H1781       H  0.01377637  0.73280602  0.63552610     0.28100
H1782       H  0.98647984  0.83842486  0.81235296     0.28100
H1783       H  0.98847190  0.69308536  0.79962237     0.18700
H1784       H  0.00135873  0.79087627  0.67702536     0.18700
C1785       C  0.78686969  0.66038212  0.63204771    -0.07100
C1786       C  0.76994561  0.62997646  0.63378184    -0.18200
C1787       C  0.76940184  0.58446466  0.61443034     0.10100
C1788       C  0.78599052  0.56886194  0.59155623    -0.07000
C1789       C  0.80294778  0.59927217  0.58973574    -0.18300
C1790       C  0.80348900  0.64491004  0.60919143     0.10100
S1791       S  0.74744458  0.54742027  0.62204865    -0.33200
S1792       S  0.82533710  0.68237490  0.60151460    -0.33200
H1793       H  0.81482458  0.72722668  0.59846243     0.28100
H1794       H  0.75830140  0.50358729  0.62794708     0.28100
H1795       H  0.75715101  0.64082604  0.65162131     0.18700
H1796       H  0.81567329  0.58842766  0.57168635     0.18700
C1797       C  0.74386091  0.95035755  0.53523813    -0.07100
C1798       C  0.73938537  0.89980041  0.53908110    -0.18200
C1799       C  0.74865319  0.86963790  0.56772374     0.10100
C1800       C  0.76313780  0.89023909  0.59353372    -0.07000
C1801       C  0.76821464  0.94040337  0.58832849    -0.18300
C1802       C  0.75868682  0.97053242  0.56023707     0.10100
S1803       S  0.74103593  0.80556106  0.57116402    -0.33200
S1804       S  0.76531922  0.03516643  0.56006694    -0.33200
H1805       H  0.74550947  0.05195624  0.55938427     0.28100
H1806       H  0.72492160  0.80815933  0.54481092     0.28100
H1807       H  0.72842230  0.88384679  0.51955466     0.18700
H1808       H  0.77909784  0.95717670  0.60763972     0.18700
C1809       C  0.74872068  0.93627376  0.73513604    -0.07100
C1810       C  0.75636445  0.96377266  0.76713432    -0.18200
C1811       C  0.75518325  0.01502271  0.76809757     0.10100
C1812       C  0.74471407  0.03995028  0.73789302    -0.07000
C1813       C  0.73689410  0.01251665  0.70597483    -0.18300
C1814       C  0.73847174  0.96104625  0.70445991     0.10100
S1815       S  0.76733570  0.04563411  0.80890335    -0.33200
S1816       S  0.72699510  0.92839369  0.66357916    -0.33200
H1817       H  0.72255501  0.97003136  0.64007872     0.28100
H1818       H  0.77629493  0.08161442  0.78428879     0.28100
H1819       H  0.76457322  0.94532076  0.79056389     0.18700
H1820       H  0.72852569  0.03147682  0.68311366     0.18700
C1821       C  0.81329847  0.84699022  0.82460136    -0.07100
C1822       C  0.81525916  0.89815621  0.83143236    -0.18200
C1823       C  0.81608625  0.91783390  0.87018581     0.10100
C1824       C  0.81470805  0.88570726  0.90346667    -0.07000
C1825       C  0.81410342  0.83441906  0.89663827    -0.18300
C1826       C  0.81349281  0.81464906  0.85793096     0.10100
S1827       S  0.81886921  0.98398101  0.87621114    -0.33200
S1828       S  0.81272115  0.74808134  0.85234260    -0.33200
H1829       H  0.81619343  0.73584813  0.89246664     0.28100
H1830       H  0.82242028  0.99537832  0.83582010     0.28100
H1831       H  0.81540892  0.92323096  0.80625345     0.18700
H1832       H  0.81319973  0.80956594  0.92190395     0.18700
C1833       C  0.85176353  0.84601335  0.67303997    -0.07100
C1834       C  0.85436223  0.89775913  0.67031657    -0.18200
C1835       C  0.87333255  0.91941918  0.67092138     0.10100
C1836       C  0.89018959  0.88880862  0.67334411    -0.07000
C1837       C  0.88764358  0.83701600  0.67305468    -0.18300
C1838       C  0.86873518  0.81542516  0.67301046     0.10100
S1839       S  0.87585154  0.98590878  0.66879282    -0.33200
S1840       S  0.86733143  0.74885241  0.67346797    -0.33200
H1841       H  0.84962344  0.74654668  0.65170474     0.28100
H1842       H  0.85545357  0.99711336  0.67137691     0.28100
H1843       H  0.84143661  0.92157944  0.66993784     0.18700
H1844       H  0.90048545  0.81295787  0.67475213     0.18700
C1845       C  0.75077440  0.69344575  0.78226390    -0.07100
C1846       C  0.73493962  0.71557349  0.80338005    -0.18200
C1847       C  0.72373418  0.68953987  0.83189678     0.10100
C1848       C  0.72866929  0.63986551  0.84121541    -0.07000
C1849       C  0.74385139  0.61688966  0.81861769    -0.18300
C1850       C  0.75464859  0.64258297  0.78910169     0.10100
S1851       S  0.70340317  0.72250111  0.85514704    -0.33200
S1852       S  0.77284885  0.60777669  0.76100150    -0.33200
H1853       H  0.76751274  0.62835596  0.72409659     0.28100
H1854       H  0.69040907  0.68169696  0.85468190     0.28100
H1855       H  0.73128019  0.75409824  0.79798056     0.18700
H1856       H  0.74777258  0.57865807  0.82457661     0.18700
loop_ 
_geom_bond_atom_site_label_1 
_geom_bond_atom_site_label_2 
_geom_bond_distance 
_geom_bond_site_symmetry_2 
_ccdc_geom_bond_type 
O1          Cr19   1.979       .  S
O1            C9   1.258       .  A
O2          Cr19   2.031       .  S
O2            C3   1.271       .  A
C3            O4   1.262       .  A
C3         C1845   1.497       .  S
O4          Cr20   1.975       .  S
O5          Cr20   2.023       .  S
O5            C6   1.264       .  A
C6            O7   1.246       .  A
C6         C1809   1.468       .  S
O7          Cr21   1.935       .  S
O8          Cr21   2.018       .  S
O8            C9   1.266       .  A
C9         C1821   1.496       .  S
O10         Cr19   2.045       .  S
O10          C18   1.277       .  A
O11         Cr19   1.971       .  S
O11          C12   1.263       .  A
C12          O13   1.268       .  A
C12        C1785   1.475       .  S
O13         Cr20   1.996       .  S
O14         Cr20   1.981       .  S
O14          C15   1.260       .  A
C15          O16   1.272       .  A
C15        C1800   1.504       .  S
O16         Cr21   2.034       .  S
O17         Cr21   1.950       .  S
O17          C18   1.255       .  A
C18        C1833   1.485       .  S
Cr19         O22   1.761       .  S
Cr20         O22   1.767       .  S
Cr21         O22   1.751       .  S
O23         Cr41   1.972       .  S
O23          C31   1.260       .  A
O24         Cr41   2.036   1_545  S
O24          C25   1.272       .  A
C25          O26   1.263   1_545  A
C25        C1737   1.493       .  S
O26         Cr42   1.991       .  S
O27         Cr42   2.023       .  S
O27          C28   1.267       .  A
C28          O29   1.246       .  A
C28        C1776   1.461       .  S
O29         Cr43   1.939       .  S
O30         Cr43   2.015       .  S
O30          C31   1.265       .  A
C31        C1749   1.494       .  S
O32         Cr41   2.043       .  S
O32          C40   1.275       .  A
O33         Cr41   1.974   1_545  S
O33          C34   1.265       .  A
C34          O35   1.270       .  A
C34        C1725   1.493       .  S
O35         Cr42   2.016   1_545  S
O36         Cr42   1.990       .  S
O36          C37   1.265       .  A
C37          O38   1.270       .  A
C37        C1761   1.502       .  S
O38         Cr43   2.027       .  S
O39         Cr43   1.951       .  S
O39          C40   1.254       .  A
C40        C1836   1.483       .  S
Cr41         O44   1.766       .  S
Cr42         O44   1.767       .  S
Cr43         O44   1.757       .  S
O45         Cr63   1.978   1_556  S
O45          C53   1.257       .  A
O46         Cr63   2.028   1_546  S
O46          C47   1.271       .  A
C47          O48   1.263   1_545  A
C47        C1680   1.498       .  S
O48         Cr64   1.979   1_556  S
O49         Cr64   2.029       .  S
O49          C50   1.268   1_554  A
C50          O51   1.249       .  A
C50        C1713   1.474       .  S
O51         Cr65   1.942   1_556  S
O52         Cr65   2.016   1_556  S
O52          C53   1.266       .  A
C53        C1824   1.492       .  S
O54         Cr63   2.043       .  S
O54          C62   1.276       .  A
O55         Cr63   1.970   1_545  S
O55          C56   1.263       .  A
C56          O57   1.270       .  A
C56        C1665   1.476       .  S
O57         Cr64   2.013   1_545  S
O58         Cr64   1.983       .  S
O58          C59   1.262       .  A
C59          O60   1.268       .  A
C59        C1704   1.497       .  S
O60         Cr65   2.023       .  S
O61         Cr65   1.949       .  S
O61          C62   1.254       .  A
C62        C1689   1.482       .  S
Cr63         O66   1.763       .  S
Cr64         O66   1.765       .  S
Cr65         O66   1.756       .  S
O67         Cr85   1.983   1_556  S
O67          C75   1.260       .  A
O68         Cr85   2.031   1_556  S
O68          C69   1.272       .  A
C69          O70   1.260       .  A
C69        C1656   1.497       .  S
O70         Cr86   1.976   1_556  S
O71         Cr86   2.018       .  S
O71          C72   1.265   1_554  A
C72          O73   1.249       .  A
C72        C1644   1.473       .  S
O73         Cr87   1.943   1_556  S
O74         Cr87   2.009   1_556  S
O74          C75   1.262       .  A
C75        C1752   1.490       .  S
O76         Cr85   2.039       .  S
O76          C84   1.276       .  A
O77         Cr85   1.968       .  S
O77          C78   1.262       .  A
C78          O79   1.270       .  A
C78        C1620   1.481       .  S
O79         Cr86   2.013       .  S
O80         Cr86   1.993       .  S
O80          C81   1.265       .  A
C81          O82   1.269       .  A
C81        C1629   1.502       .  S
O82         Cr87   2.019       .  S
O83         Cr87   1.951       .  S
O83          C84   1.256       .  A
C84        C1692   1.478       .  S
Cr85         O88   1.766       .  S
Cr86         O88   1.771       .  S
Cr87         O88   1.754       .  S
O89        Cr107   2.046       .  S
O89          C97   1.276       .  A
O90        Cr107   1.965       .  S
O90          C91   1.261       .  A
C91          O92   1.272       .  A
C91        C1569   1.482       .  S
O92        Cr108   2.013       .  S
O93        Cr108   1.985       .  S
O93          C94   1.261       .  A
C94          O95   1.272       .  A
C94        C1653   1.507       .  S
O95        Cr109   2.032       .  S
O96        Cr109   1.959       .  S
O96          C97   1.257       .  A
C97        C1596   1.493       .  S
O98        Cr107   1.968       .  S
O98         C106   1.256       .  A
O99        Cr107   2.033       .  S
O99         C100   1.271       .  A
C100        O101   1.263       .  A
C100       C1608   1.511       .  S
O101       Cr108   1.986       .  S
O102       Cr108   2.025       .  S
O102        C103   1.268       .  A
C103        O104   1.248       .  A
C103       C1773   1.462   1_455  S
O104       Cr109   1.942       .  S
O105       Cr109   2.019       .  S
O105        C106   1.267       .  A
C106       C1581   1.486       .  S
Cr107       O110   1.763       .  S
Cr108       O110   1.768       .  S
Cr109       O110   1.759       .  S
O111       Cr129   2.051       .  S
O111        C119   1.277       .  A
O112       Cr129   1.966       .  S
O112        C113   1.263       .  A
C113        O114   1.268       .  A
C113       C1509   1.473       .  S
O114       Cr130   2.003       .  S
O115       Cr130   1.988       .  S
O115        C116   1.266       .  A
C116        O117   1.272       .  A
C116       C1548   1.507       .  S
O117       Cr131   2.037       .  S
O118       Cr131   1.955       .  S
O118        C119   1.256       .  A
C119       C1593   1.488       .  S
O120       Cr129   1.966       .  S
O120        C128   1.258       .  A
O121       Cr129   2.043       .  S
O121        C122   1.274       .  A
C122        O123   1.263       .  A
C122       C1557   1.500       .  S
O123       Cr130   1.983       .  S
O124       Cr130   2.019       .  S
O124        C125   1.263       .  A
C125        O126   1.246       .  A
C125       C1536   1.472       .  S
O126       Cr131   1.941       .  S
O127       Cr131   2.018       .  S
O127        C128   1.264       .  A
C128       C1521   1.489       .  S
Cr129       O132   1.762       .  S
Cr130       O132   1.768       .  S
Cr131       O132   1.752       .  S
O133       Cr151   2.052       .  S
O133        C141   1.277       .  A
O134       Cr151   1.981       .  S
O134        C135   1.265       .  A
C135        O136   1.271       .  A
C135       C1461   1.484       .  S
O136       Cr152   2.017       .  S
O137       Cr152   1.973       .  S
O137        C138   1.260       .  A
C138        O139   1.274       .  A
C138       C1485   1.503       .  S
O139       Cr153   2.035       .  S
O140       Cr153   1.953       .  S
O140        C141   1.255       .  A
C141       C1473   1.484       .  S
O142       Cr151   1.976       .  S
O142        C150   1.258       .  A
O143       Cr151   2.041       .  S
O143        C144   1.274       .  A
C144        O145   1.262       .  A
C144       C1764   1.506       .  S
O145       Cr152   1.975       .  S
O146       Cr152   2.028   1_655  S
O146        C147   1.267   1_655  A
C147        O148   1.244       .  A
C147       C1500   1.465   1_455  S
O148       Cr153   1.941       .  S
O149       Cr153   2.015       .  S
O149        C150   1.267       .  A
C150       C1584   1.491       .  S
Cr151       O154   1.761       .  S
Cr152       O154   1.770       .  S
Cr153       O154   1.760       .  S
O155       Cr173   2.015       .  S
O155        C163   1.266       .  A
O156       Cr173   1.993       .  S
O156        C157   1.267       .  A
C157        O158   1.265       .  A
C157       C1413   1.489       .  S
O158       Cr174   1.988       .  S
O159       Cr174   2.001       .  S
O159        C160   1.267       .  A
C160        O161   1.271       .  A
C160       C1437   1.487       .  S
O161       Cr175   1.997       .  S
O162       Cr175   1.965       .  S
O162        C163   1.253       .  A
C163       C1476   1.492       .  S
O164       Cr173   2.002       .  S
O164        C172   1.266       .  A
O165       Cr173   2.005       .  S
O165        C166   1.263       .  A
C166        O167   1.258       .  A
C166       C1425   1.486       .  S
O167       Cr174   1.989       .  S
O168       Cr174   2.008       .  S
O168        C169   1.261       .  A
C169        O170   1.246       .  A
C169       C1449   1.452       .  S
O170       Cr175   1.943       .  S
O171       Cr175   1.976       .  S
O171        C172   1.263       .  A
C172       C1524   1.481       .  S
Cr173       O176   1.786       .  S
Cr174       O176   1.781       .  S
Cr175       O176   1.779       .  S
O177       Cr195   2.041       .  S
O177        C185   1.276       .  A
O178       Cr195   1.969       .  S
O178        C179   1.263       .  A
C179        O180   1.270       .  A
C179       C1368   1.477       .  S
O180       Cr196   2.013       .  S
O181       Cr196   1.992       .  S
O181        C182   1.266       .  A
C182        O183   1.268       .  A
C182       C1677   1.504       .  S
O183       Cr197   2.021       .  S
O184       Cr197   1.954       .  S
O184        C185   1.257       .  A
C185       C1389   1.485       .  S
O186       Cr195   1.975       .  S
O186        C194   1.259       .  A
O187       Cr195   2.027       .  S
O187        C188   1.272       .  A
C188        O189   1.261       .  A
C188       C1404   1.499       .  S
O189       Cr196   1.979       .  S
O190       Cr196   2.022       .  S
O190        C191   1.265       .  A
C191        O192   1.246       .  A
C191       C1812   1.467       .  S
O192       Cr197   1.939       .  S
O193       Cr197   2.004       .  S
O193        C194   1.260       .  A
C194       C1377   1.483       .  S
Cr195       O198   1.762       .  S
Cr196       O198   1.771       .  S
Cr197       O198   1.754       .  S
O199       Cr217   2.043       .  S
O199        C207   1.276       .  A
O200       Cr217   1.963   1_565  S
O200        C201   1.261       .  A
C201        O202   1.273       .  A
C201       C1308   1.483       .  S
O202       Cr218   2.017   1_565  S
O203       Cr218   2.000       .  S
O203        C204   1.267       .  A
C204        O205   1.267       .  A
C204       C1329   1.512       .  S
O205       Cr219   2.024       .  S
O206       Cr219   1.957       .  S
O206        C207   1.258       .  A
C207       C1392   1.486       .  S
O208       Cr217   1.981       .  S
O208        C216   1.261       .  A
O209       Cr217   2.037   1_565  S
O209        C210   1.271       .  A
C210        O211   1.260   1_565  A
C210       C1353   1.496       .  S
O211       Cr218   1.984       .  S
O212       Cr218   2.014       .  S
O212        C213   1.267       .  A
C213        O214   1.247       .  A
C213       C1320   1.456       .  S
O214       Cr219   1.940       .  S
O215       Cr219   2.010       .  S
O215        C216   1.260       .  A
C216       C1341   1.488       .  S
Cr217       O220   1.767       .  S
Cr218       O220   1.770       .  S
Cr219       O220   1.758       .  S
O221       Cr239   2.046       .  S
O221        C229   1.277       .  A
O222       Cr239   1.966   1_565  S
O222        C223   1.262       .  A
C223        O224   1.269       .  A
C223       C1257   1.467       .  S
O224       Cr240   2.007   1_565  S
O225       Cr240   1.985       .  S
O225        C226   1.264       .  A
C226        O227   1.269       .  A
C226       C1284   1.496       .  S
O227       Cr241   2.014       .  S
O228       Cr241   1.957       .  S
O228        C229   1.258       .  A
C229       C1269   1.491       .  S
O230       Cr239   1.977       .  S
O230        C238   1.259       .  A
O231       Cr239   2.031   1_565  S
O231        C232   1.272       .  A
C232        O233   1.260   1_565  A
C232       C1797   1.498       .  S
O233       Cr240   1.978       .  S
O234       Cr240   2.017       .  S
O234        C235   1.263       .  A
C235        O236   1.249       .  A
C235       C1293   1.471       .  S
O236       Cr241   1.944       .  S
O237       Cr241   2.005       .  S
O237        C238   1.260       .  A
C238       C1380   1.487       .  S
Cr239       O242   1.759       .  S
Cr240       O242   1.774       .  S
Cr241       O242   1.751       .  S
O243       Cr261   2.051       .  S
O243        C251   1.278       .  A
O244       Cr261   1.963       .  S
O244        C245   1.261       .  A
C245        O246   1.273       .  A
C245       C1209   1.478       .  S
O246       Cr262   2.019       .  S
O247       Cr262   1.979       .  S
O247        C248   1.261       .  A
C248        O249   1.269       .  A
C248       C1236   1.497       .  S
O249       Cr263   2.028       .  S
O250       Cr263   1.950       .  S
O250        C251   1.256       .  A
C251       C1272   1.484       .  S
O252       Cr261   1.984       .  S
O252        C260   1.261       .  A
O253       Cr261   2.045       .  S
O253        C254   1.274       .  A
C254        O255   1.259       .  A
C254       C1221   1.497       .  S
O255       Cr262   1.969       .  S
O256       Cr262   2.035       .  S
O256        C257   1.268       .  A
C257        O258   1.242       .  A
C257       C1245   1.456       .  S
O258       Cr263   1.936       .  S
O259       Cr263   2.009       .  S
O259        C260   1.262       .  A
C260       C1344   1.490       .  S
Cr261       O264   1.761       .  S
Cr262       O264   1.773       .  S
Cr263       O264   1.752       .  S
O265       Cr283   2.049       .  S
O265        C273   1.278       .  A
O266       Cr283   1.967       .  S
O266        C267   1.262       .  A
C267        O268   1.269       .  A
C267       C1260   1.472       .  S
O268       Cr284   2.008       .  S
O269       Cr284   1.977       .  S
O269        C270   1.261       .  A
C270        O271   1.269       .  A
C270       C1185   1.493       .  S
O271       Cr285   2.027       .  S
O272       Cr285   1.953       .  S
O272        C273   1.256       .  A
C273       C1176   1.488       .  S
O274       Cr283   1.979       .  S
O274        C282   1.258       .  A
O275       Cr283   2.037       .  S
O275        C276   1.273       .  A
C276        O277   1.258       .  A
C276       C1701   1.494       .  S
O277       Cr284   1.967       .  S
O278       Cr284   2.017       .  S
O278        C279   1.266       .  A
C279        O280   1.248       .  A
C279       C1200   1.455       .  S
O280       Cr285   1.943       .  S
O281       Cr285   2.014       .  S
O281        C282   1.266       .  A
C282       C1164   1.487       .  S
Cr283       O286   1.763       .  S
Cr284       O286   1.768       .  S
Cr285       O286   1.755       .  S
O287       Cr305   2.042       .  S
O287        C295   1.275       .  A
O288       Cr305   1.969       .  S
O288        C289   1.263       .  A
C289        O290   1.269       .  A
C289       C1212   1.477       .  S
O290       Cr306   2.012       .  S
O291       Cr306   1.988       .  S
O291        C292   1.263       .  A
C292        O293   1.270       .  A
C292       C1128   1.504       .  S
O293       Cr307   2.021       .  S
O294       Cr307   1.958       .  S
O294        C295   1.256       .  A
C295       C1173   1.485       .  S
O296       Cr305   1.972       .  S
O296        C304   1.260       .  A
O297       Cr305   2.031       .  S
O297        C298   1.270       .  A
C298        O299   1.264       .  A
C298       C1137   1.508       .  S
O299       Cr306   1.987       .  S
O300       Cr306   2.021       .  S
O300        C301   1.266       .  A
C301        O302   1.248       .  A
C301       C1113   1.461       .  S
O302       Cr307   1.947       .  S
O303       Cr307   2.011       .  S
O303        C304   1.263       .  A
C304       C1152   1.487       .  S
Cr305       O308   1.763       .  S
Cr306       O308   1.768       .  S
Cr307       O308   1.758       .  S
O309       Cr327   2.048       .  S
O309        C317   1.276       .  A
O310       Cr327   1.969       .  S
O310        C311   1.262       .  A
C311        O312   1.271       .  A
C311       C1365   1.480       .  S
O312       Cr328   2.018       .  S
O313       Cr328   1.982       .  S
O313        C314   1.264       .  A
C314        O315   1.270       .  A
C314       C1848   1.498       .  S
O315       Cr329   2.027       .  S
O316       Cr329   1.953       .  S
O316        C317   1.254       .  A
C317       C1089   1.488       .  S
O318       Cr327   1.966   1_554  S
O318        C326   1.255       .  A
O319       Cr327   2.030       .  S
O319        C320   1.272   1_556  A
C320        O321   1.261   1_554  A
C320       C1101   1.495       .  S
O321       Cr328   1.979       .  S
O322       Cr328   2.032       .  S
O322        C323   1.267       .  A
C323        O324   1.248       .  A
C323       C1716   1.476       .  S
O324       Cr329   1.940       .  S
O325       Cr329   2.025   1_554  S
O325        C326   1.269       .  A
C326       C1161   1.495       .  S
Cr327       O330   1.762       .  S
Cr328       O330   1.769       .  S
Cr329       O330   1.754       .  S
O331       Cr349   2.044       .  S
O331        C339   1.277       .  A
O332       Cr349   1.973       .  S
O332        C333   1.264       .  A
C333        O334   1.269       .  A
C333       C1305   1.487       .  S
O334       Cr350   2.011       .  S
O335       Cr350   1.991       .  S
O335        C336   1.264       .  A
C336        O337   1.270       .  A
C336       C1077   1.505       .  S
O337       Cr351   2.027       .  S
O338       Cr351   1.957       .  S
O338        C339   1.258       .  A
C339       C1092   1.486       .  S
O340       Cr349   1.981   1_554  S
O340        C348   1.260       .  A
O341       Cr349   2.039   1_554  S
O341        C342   1.273       .  A
C342        O343   1.260       .  A
C342       C1053   1.503       .  S
O343       Cr350   1.971   1_554  S
O344       Cr350   2.018       .  S
O344        C345   1.268       .  A
C345        O346   1.248   1_556  A
C345       C1065   1.460   1_556  S
O346       Cr351   1.947   1_554  S
O347       Cr351   2.004   1_554  S
O347        C348   1.260       .  A
C348       C1149   1.487       .  S
Cr349       O352   1.765       .  S
Cr350       O352   1.768       .  S
Cr351       O352   1.759       .  S
O353       Cr371   1.971       .  S
O353        C361   1.259       .  A
O354       Cr371   2.031       .  S
O354        C355   1.273       .  A
C355        O356   1.259       .  A
C355       C1440   1.494       .  S
O356       Cr372   1.976       .  S
O357       Cr372   2.023       .  S
O357        C358   1.266       .  A
C358        O359   1.247       .  A
C358       C1005   1.465       .  S
O359       Cr373   1.933       .  S
O360       Cr373   2.016       .  S
O360        C361   1.265       .  A
C361       C1029   1.488       .  S
O362       Cr371   2.044       .  S
O362        C370   1.275       .  A
O363       Cr371   1.963       .  S
O363        C364   1.261       .  A
C364        O365   1.270       .  A
C364        C996   1.470       .  S
O365       Cr372   2.009       .  S
O366       Cr372   1.979       .  S
O366        C367   1.261       .  A
C367        O368   1.269       .  A
C367       C1020   1.493       .  S
O368       Cr373   2.024       .  S
O369       Cr373   1.949       .  S
O369        C370   1.254       .  A
C370       C1041   1.479       .  S
Cr371       O374   1.762       .  S
Cr372       O374   1.768       .  S
Cr373       O374   1.752       .  S
O375       Cr393   1.974       .  S
O375        C383   1.258       .  A
O376       Cr393   2.025   1_545  S
O376        C377   1.269       .  A
C377        O378   1.262   1_545  A
C377       C1233   1.483       .  S
O378       Cr394   1.984       .  S
O379       Cr394   2.025       .  S
O379        C380   1.266       .  A
C380        O381   1.246       .  A
C380       C1116   1.462       .  S
O381       Cr395   1.942       .  S
O382       Cr395   2.016       .  S
O382        C383   1.267       .  A
C383        C981   1.492       .  S
O384       Cr393   2.036       .  S
O384        C392   1.273       .  A
O385       Cr393   1.972   1_545  S
O385        C386   1.264       .  A
C386        O387   1.272       .  A
C386        C972   1.479       .  S
O387       Cr394   2.018   1_545  S
O388       Cr394   1.987       .  S
O388        C389   1.265       .  A
C389        O390   1.270       .  A
C389       C1056   1.501       .  S
O390       Cr395   2.024       .  S
O391       Cr395   1.954       .  S
O391        C392   1.255       .  A
C392       C1044   1.482       .  S
Cr393       O396   1.764       .  S
Cr394       O396   1.767       .  S
Cr395       O396   1.754       .  S
O397       Cr415   1.971       .  S
O397        C405   1.260       .  A
O398       Cr415   2.027   1_545  S
O398        C399   1.269       .  A
C399        O400   1.268   1_545  A
C399        C945   1.514       .  S
O400       Cr416   2.003       .  S
O401       Cr416   2.053       .  S
O401        C402   1.270       .  A
C402        O403   1.242       .  A
C402       C1452   1.483       .  S
O403       Cr417   1.927       .  S
O404       Cr417   2.019       .  S
O404        C405   1.267       .  A
C405       C1032   1.491       .  S
O406       Cr415   2.046       .  S
O406        C414   1.274       .  A
O407       Cr415   1.966   1_545  S
O407        C408   1.265       .  A
C408        O409   1.275       .  A
C408        C933   1.478       .  S
O409       Cr416   2.023   1_545  S
O410       Cr416   1.985       .  S
O410        C411   1.262       .  A
C411        O412   1.273       .  A
C411       C1560   1.511       .  S
O412       Cr417   2.036       .  S
O413       Cr417   1.965       .  S
O413        C414   1.254       .  A
C414        C960   1.482       .  S
Cr415       O418   1.764       .  S
Cr416       O418   1.773       .  S
Cr417       O418   1.752       .  S
O419       Cr437   1.972       .  S
O419        C427   1.259       .  A
O420       Cr437   2.021       .  S
O420        C421   1.268       .  A
C421        O422   1.262       .  A
C421       C1125   1.496       .  S
O422       Cr438   1.986       .  S
O423       Cr438   2.022       .  S
O423        C424   1.265       .  A
C424        O425   1.241       .  A
C424       C1248   1.454       .  S
O425       Cr439   1.930       .  S
O426       Cr439   2.019       .  S
O426        C427   1.271       .  A
C427        C984   1.490       .  S
O428       Cr437   2.037       .  S
O428        C436   1.271       .  A
O429       Cr437   1.967       .  S
O429        C430   1.266       .  A
C430        O431   1.270       .  A
C430        C921   1.480       .  S
O431       Cr438   2.010       .  S
O432       Cr438   1.977       .  S
O432        C433   1.261       .  A
C433        O434   1.274       .  A
C433       C1356   1.506       .  S
O434       Cr439   2.040       .  S
O435       Cr439   1.967       .  S
O435        C436   1.256       .  A
C436        C957   1.492       .  S
Cr437       O440   1.763       .  S
Cr438       O440   1.769       .  S
Cr439       O440   1.756       .  S
O441       Cr459   1.974       .  S
O441        C449   1.259       .  A
O442       Cr459   2.028       .  S
O442        C443   1.269       .  A
C443        O444   1.260       .  A
C443       C1281   1.480       .  S
O444       Cr460   1.978       .  S
O445       Cr460   2.020       .  S
O445        C446   1.265       .  A
C446        O447   1.246       .  A
C446       C1197   1.457       .  S
O447       Cr461   1.945       .  S
O448       Cr461   2.011       .  S
O448        C449   1.264       .  A
C449        C897   1.488       .  S
O450       Cr459   2.039       .  S
O450        C458   1.274       .  A
O451       Cr459   1.965       .  S
O451        C452   1.262       .  A
C452        O453   1.272       .  A
C452       C1668   1.473       .  S
O453       Cr460   2.020       .  S
O454       Cr460   1.981       .  S
O454        C455   1.263       .  A
C455        O456   1.272       .  A
C455       C1104   1.504       .  S
O456       Cr461   2.025       .  S
O457       Cr461   1.954       .  S
O457        C458   1.255       .  A
C458        C909   1.481       .  S
Cr459       O462   1.763       .  S
Cr460       O462   1.767       .  S
Cr461       O462   1.754       .  S
O463       Cr481   1.976       .  S
O463        C471   1.260       .  A
O464       Cr481   2.035       .  S
O464        C465   1.272       .  A
C465        O466   1.259       .  A
C465       C1488   1.495       .  S
O466       Cr482   1.970       .  S
O467       Cr482   2.019       .  S
O467        C468   1.267       .  A
C468        O469   1.248       .  A
C468        C876   1.461       .  S
O469       Cr483   1.948       .  S
O470       Cr483   2.014       .  S
O470        C471   1.263       .  A
C471        C861   1.490       .  S
O472       Cr481   2.041       .  S
O472        C480   1.276       .  A
O473       Cr481   1.970       .  S
O473        C474   1.262       .  A
C474        O475   1.270       .  A
C474       C1617   1.477       .  S
O475       Cr482   2.011       .  S
O476       Cr482   1.983       .  S
O476        C477   1.262       .  A
C477        O478   1.271       .  A
C477        C888   1.506       .  S
O478       Cr483   2.027       .  S
O479       Cr483   1.957       .  S
O479        C480   1.257       .  A
C480        C912   1.486       .  S
Cr481       O484   1.765       .  S
Cr482       O484   1.769       .  S
Cr483       O484   1.757       .  S
O485       Cr503   1.972       .  S
O485        C493   1.259       .  A
O486       Cr503   2.031       .  S
O486        C487   1.270       .  A
C487        O488   1.261       .  A
C487       C1188   1.502       .  S
O488       Cr504   1.975       .  S
O489       Cr504   2.022       .  S
O489        C490   1.265       .  A
C490        O491   1.245       .  A
C490       C1296   1.469       .  S
O491       Cr505   1.939       .  S
O492       Cr505   2.008       .  S
O492        C493   1.262       .  A
C493        C900   1.489       .  S
O494       Cr503   2.033       .  S
O494        C502   1.274       .  A
O495       Cr503   1.958       .  S
O495        C496   1.260       .  A
C496        O497   1.270       .  A
C496       C1788   1.476       .  S
O497       Cr504   2.013       .  S
O498       Cr504   1.987       .  S
O498        C499   1.263       .  A
C499        O500   1.271       .  A
C499       C1401   1.502       .  S
O500       Cr505   2.028       .  S
O501       Cr505   1.954       .  S
O501        C502   1.257       .  A
C502        C849   1.479       .  S
Cr503       O506   1.758       .  S
Cr504       O506   1.765       .  S
Cr505       O506   1.750       .  S
O507       Cr525   1.975       .  S
O507        C515   1.260       .  A
O508       Cr525   2.024       .  S
O508        C509   1.268       .  A
C509        O510   1.263       .  A
C509        C837   1.501       .  S
O510       Cr526   1.987       .  S
O511       Cr526   2.028       .  S
O511        C512   1.269       .  A
C512        O513   1.246       .  A
C512       C1497   1.464       .  S
O513       Cr527   1.940       .  S
O514       Cr527   2.014       .  S
O514        C515   1.264       .  A
C515        C864   1.491       .  S
O516       Cr525   2.029       .  S
O516        C524   1.272       .  A
O517       Cr525   1.966       .  S
O517        C518   1.260       .  A
C518        O519   1.275       .  A
C518       C1728   1.491       .  S
O519       Cr526   2.028       .  S
O520       Cr526   1.992       .  S
O520        C521   1.267       .  A
C521        O522   1.271       .  A
C521       C1605   1.503       .  S
O522       Cr527   2.030       .  S
O523       Cr527   1.956       .  S
O523        C524   1.256       .  A
C524        C852   1.479       .  S
Cr525       O528   1.763       .  S
Cr526       O528   1.768       .  S
Cr527       O528   1.756       .  S
O529       Cr547   2.049       .  S
O529        C537   1.277       .  A
O530       Cr547   1.973   1_565  S
O530        C531   1.265       .  A
C531        O532   1.273       .  A
C531       C1464   1.485       .  S
O532       Cr548   2.024   1_565  S
O533       Cr548   1.981       .  S
O533        C534   1.264       .  A
C534        O535   1.269       .  A
C534        C840   1.486       .  S
O535       Cr549   2.022       .  S
O536       Cr549   1.950       .  S
O536        C537   1.254       .  A
C537        C825   1.485       .  S
O538       Cr547   1.978       .  S
O538        C546   1.260       .  A
O539       Cr547   2.036   1_565  S
O539        C540   1.271       .  A
C540        O541   1.260   1_565  A
C540       C1632   1.486       .  S
O541       Cr548   1.979       .  S
O542       Cr548   2.024       .  S
O542        C543   1.266       .  A
C543        O544   1.246       .  A
C543        C873   1.461       .  S
O544       Cr549   1.942       .  S
O545       Cr549   2.011       .  S
O545        C546   1.263       .  A
C546        C816   1.489       .  S
Cr547       O550   1.768       .  S
Cr548       O550   1.770       .  S
Cr549       O550   1.758       .  S
O551       Cr569   2.048       .  S
O551        C559   1.277       .  A
O552       Cr569   1.975       .  S
O552        C553   1.265       .  A
C553        O554   1.272       .  A
C553       C1416   1.489       .  S
O554       Cr570   2.014       .  S
O555       Cr570   1.996       .  S
O555        C556   1.267       .  A
C556        O557   1.270       .  A
C556        C948   1.507       .  S
O557       Cr571   2.028       .  S
O558       Cr571   1.955       .  S
O558        C559   1.256       .  A
C559        C828   1.488       .  S
O560       Cr569   1.981       .  S
O560        C568   1.259       .  A
O561       Cr569   2.034       .  S
O561        C562   1.271       .  A
C562        O563   1.260       .  A
C562        C792   1.490       .  S
O563       Cr570   1.984       .  S
O564       Cr570   2.012       .  S
O564        C565   1.264       .  A
C565        O566   1.248       .  A
C565       C1008   1.464       .  S
O566       Cr571   1.938       .  S
O567       Cr571   2.012       .  S
O567        C568   1.265       .  A
C568        C801   1.486       .  S
Cr569       O572   1.767       .  S
Cr570       O572   1.769       .  S
Cr571       O572   1.759       .  S
O573       Cr591   2.040       .  S
O573        C581   1.276       .  A
O574       Cr591   1.972       .  S
O574        C575   1.263       .  A
C575        O576   1.270       .  A
C575       C1572   1.486       .  S
O576       Cr592   2.014       .  S
O577       Cr592   1.990       .  S
O577        C578   1.266       .  A
C578        O579   1.274       .  A
C578       C1740   1.507       .  S
O579       Cr593   2.037       .  S
O580       Cr593   1.958       .  S
O580        C581   1.258       .  A
C581        C780   1.486       .  S
O582       Cr591   1.980   1_554  S
O582        C590   1.260       .  A
O583       Cr591   2.036       .  S
O583        C584   1.272   1_556  A
C584        O585   1.259   1_554  A
C584        C885   1.494       .  S
O585       Cr592   1.971       .  S
O586       Cr592   2.015       .  S
O586        C587   1.264       .  A
C587        O588   1.247       .  A
C587       C1641   1.472   1_455  S
O588       Cr593   1.945       .  S
O589       Cr593   2.014   1_554  S
O589        C590   1.263       .  A
C590        C813   1.494       .  S
Cr591       O594   1.763       .  S
Cr592       O594   1.770       .  S
Cr593       O594   1.756       .  S
O595       Cr613   2.045       .  S
O595        C603   1.276       .  A
O596       Cr613   1.955   1_565  S
O596        C597   1.259       .  A
C597        O598   1.271       .  A
C597       C1512   1.470       .  S
O598       Cr614   2.012   1_565  S
O599       Cr614   1.981       .  S
O599        C600   1.262       .  A
C600        O601   1.272       .  A
C600        C765   1.500       .  S
O601       Cr615   2.032       .  S
O602       Cr615   1.955       .  S
O602        C603   1.256       .  A
C603        C777   1.487       .  S
O604       Cr613   1.970   1_554  S
O604        C612   1.256       .  A
O605       Cr613   2.033   1_564  S
O605        C606   1.270       .  A
C606        O607   1.261   1_565  A
C606       C1017   1.502       .  S
O607       Cr614   1.974   1_554  S
O608       Cr614   2.017       .  S
O608        C609   1.266       .  A
C609        O610   1.249   1_556  A
C609        C753   1.475   1_556  S
O610       Cr615   1.945   1_554  S
O611       Cr615   2.019   1_554  S
O611        C612   1.268       .  A
C612        C804   1.492       .  S
Cr613       O616   1.760       .  S
Cr614       O616   1.764       .  S
Cr615       O616   1.753       .  S
O617       Cr635   1.963       .  S
O617        C625   1.254       .  A
O618       Cr635   2.038       .  S
O618        C619   1.272       .  A
C619        O620   1.259       .  A
C619        C768   1.488       .  S
O620       Cr636   1.978       .  S
O621       Cr636   2.026       .  S
O621        C622   1.264       .  A
C622        O623   1.245       .  A
C622       C1533   1.472       .  S
O623       Cr637   1.942       .  S
O624       Cr637   2.011       .  S
O624        C625   1.266       .  A
C625        C732   1.487       .  S
O626       Cr635   2.046       .  S
O626        C634   1.277       .  A
O627       Cr635   1.964       .  S
O627        C628   1.263       .  A
C628        O629   1.273       .  A
C628        C936   1.480       .  S
O629       Cr636   2.022       .  S
O630       Cr636   1.978       .  S
O630        C631   1.262       .  A
C631        O632   1.275       .  A
C631       C1428   1.501       .  S
O632       Cr637   2.039       .  S
O633       Cr637   1.961       .  S
O633        C634   1.259       .  A
C634        C741   1.489       .  S
Cr635       O638   1.761       .  S
Cr636       O638   1.768       .  S
Cr637       O638   1.756       .  S
O639       Cr657   1.966       .  S
O639        C647   1.259       .  A
O640       Cr657   2.026       .  S
O640        C641   1.270       .  A
C641        O642   1.262       .  A
C641       C1080   1.504       .  S
O642       Cr658   1.991       .  S
O643       Cr658   2.013       .  S
O643        C644   1.264       .  A
C644        O645   1.248       .  A
C644       C1317   1.456       .  S
O645       Cr659   1.941       .  S
O646       Cr659   2.016       .  S
O646        C647   1.265       .  A
C647        C717   1.486       .  S
O648       Cr657   2.036       .  S
O648        C656   1.272       .  A
O649       Cr657   1.963       .  S
O649        C650   1.261       .  A
C650        O651   1.271       .  A
C650        C924   1.481       .  S
O651       Cr658   2.012       .  S
O652       Cr658   1.992       .  S
O652        C653   1.265       .  A
C653        O654   1.272       .  A
C653       C1224   1.508       .  S
O654       Cr659   2.022       .  S
O655       Cr659   1.967       .  S
O655        C656   1.258       .  A
C656        C744   1.493       .  S
Cr657       O660   1.762       .  S
Cr658       O660   1.776       .  S
Cr659       O660   1.759       .  S
O661       Cr679   1.973   1_556  S
O661        C669   1.258       .  A
O662       Cr679   2.027   1_556  S
O662        C663   1.269       .  A
C663        O664   1.264       .  A
C663       C1545   1.506       .  S
O664       Cr680   1.995   1_556  S
O665       Cr680   2.023       .  S
O665        C666   1.264       .  A
C666        O667   1.246   1_554  A
C666        C756   1.477       .  S
O667       Cr681   1.939   1_556  S
O668       Cr681   2.004   1_556  S
O668        C669   1.266       .  A
C669        C729   1.478       .  S
O670       Cr679   2.039       .  S
O670        C678   1.273       .  A
O671       Cr679   1.964       .  S
O671        C672   1.263       .  A
C672        O673   1.272       .  A
C672        C993   1.465       .  S
O673       Cr680   2.011       .  S
O674       Cr680   1.985       .  S
O674        C675   1.264       .  A
C675        O676   1.271       .  A
C675        C789   1.502       .  S
O676       Cr681   2.027       .  S
O677       Cr681   1.972       .  S
O677        C678   1.259       .  A
C678        C705   1.492       .  S
Cr679       O682   1.763       .  S
Cr680       O682   1.771       .  S
Cr681       O682   1.755       .  S
O683       Cr701   1.968   1_556  S
O683        C691   1.260       .  A
O684       Cr701   2.027   1_556  S
O684        C685   1.269       .  A
C685        O686   1.265       .  A
C685       C1332   1.508       .  S
O686       Cr702   1.999   1_556  S
O687       Cr702   2.027       .  S
O687        C688   1.267       .  A
C688        O689   1.247   1_554  A
C688       C1068   1.462   1_554  S
O689       Cr703   1.937   1_556  S
O690       Cr703   2.017   1_556  S
O690        C691   1.267       .  A
C691        C720   1.489       .  S
O692       Cr701   2.037       .  S
O692        C700   1.272       .  A
O693       Cr701   1.968       .  S
O693        C694   1.264       .  A
C694        O695   1.273       .  A
C694        C969   1.481       .  S
O695       Cr702   2.021       .  S
O696       Cr702   1.985       .  S
O696        C697   1.264       .  A
C697        O698   1.270       .  A
C697       C1140   1.501       .  S
O698       Cr703   2.027       .  S
O699       Cr703   1.972       .  S
O699        C700   1.255       .  A
C700        C708   1.483       .  S
Cr701       O704   1.766       .  S
Cr702       O704   1.771       .  S
Cr703       O704   1.761       .  S
C705        C706   1.410       .  A
C705        C710   1.417       .  A
C706        C707   1.411       .  A
C706        H715   1.084       .  S
C707        C708   1.413       .  A
C707        S711   1.802       .  S
C708        C709   1.400       .  A
C709        C710   1.399       .  A
C709        H716   1.081   1_554  S
C710        S712   1.808   1_554  S
S711        H714   1.406       .  S
S712        H713   1.407       .  S
C717        C718   1.405       .  A
C717        C722   1.416       .  A
C718        C719   1.397       .  A
C718        H727   1.083       .  S
C719        C720   1.416       .  A
C719        S723   1.801       .  S
C720        C721   1.408       .  A
C721        C722   1.403       .  A
C721        H728   1.082       .  S
C722        S724   1.810       .  S
S723        H726   1.406       .  S
S724        H725   1.407       .  S
C729        C730   1.403       .  A
C729        C734   1.412       .  A
C730        C731   1.399       .  A
C730        H739   1.082       .  S
C731        C732   1.421       .  A
C731        S735   1.813       .  S
C732        C733   1.408       .  A
C733        C734   1.398       .  A
C733        H740   1.084       .  S
C734        S736   1.803       .  S
S735        H738   1.406       .  S
S736        H737   1.407       .  S
C741        C742   1.409       .  A
C741        C746   1.410       .  A
C742        C743   1.404       .  A
C742        H751   1.085       .  S
C743        C744   1.413       .  A
C743        S747   1.803       .  S
C744        C745   1.412       .  A
C745        C746   1.405       .  A
C745        H752   1.084       .  S
C746        S748   1.802       .  S
S747        H750   1.407       .  S
S748        H749   1.407       .  S
C753        C754   1.410       .  A
C753        C758   1.410   1_554  A
C754        C755   1.394       .  A
C754        H763   1.083       .  S
C755        C756   1.413       .  A
C755        S759   1.802       .  S
C756        C757   1.410   1_554  A
C757        C758   1.390       .  A
C757        H764   1.083       .  S
C758        S760   1.803       .  S
S759        H762   1.407       .  S
S760        H761   1.408       .  S
C765        C766   1.409       .  A
C765        C770   1.420       .  A
C766        C767   1.403       .  A
C766        H775   1.084       .  S
C767        C768   1.416       .  A
C767        S771   1.806       .  S
C768        C769   1.404       .  A
C769        C770   1.407       .  A
C769        H776   1.084       .  S
C770        S772   1.802       .  S
S771        H774   1.404       .  S
S772        H773   1.408       .  S
C777        C778   1.410       .  A
C777        C782   1.409       .  A
C778        C779   1.399       .  A
C778        H787   1.085       .  S
C779        C780   1.409       .  A
C779        S783   1.803       .  S
C780        C781   1.412       .  A
C781        C782   1.407       .  A
C781        H788   1.084       .  S
C782        S784   1.807       .  S
S783        H786   1.407       .  S
S784        H785   1.407   1_545  S
C789        C790   1.411       .  A
C789        C794   1.420       .  A
C790        C791   1.404       .  A
C790        H799   1.083       .  S
C791        C792   1.414       .  A
C791        S795   1.805       .  S
C792        C793   1.405       .  A
C793        C794   1.408       .  A
C793        H800   1.084       .  S
C794        S796   1.802       .  S
S795        H798   1.407       .  S
S796        H797   1.408       .  S
C801        C802   1.405       .  A
C801        C806   1.413       .  A
C802        C803   1.400       .  A
C802        H811   1.085       .  S
C803        C804   1.420       .  A
C803        S807   1.804       .  S
C804        C805   1.407       .  A
C805        C806   1.404       .  A
C805        H812   1.082       .  S
C806        S808   1.808       .  S
S807        H810   1.408   1_545  S
S808        H809   1.407       .  S
C813        C814   1.408       .  A
C813        C818   1.420       .  A
C814        C815   1.400       .  A
C814        H823   1.086       .  S
C815        C816   1.417       .  A
C815        S819   1.802       .  S
C816        C817   1.404       .  A
C817        C818   1.400       .  A
C817        H824   1.086       .  S
C818        S820   1.801       .  S
S819        H822   1.407       .  S
S820        H821   1.405       .  S
C825        C826   1.411       .  A
C825        C830   1.408       .  A
C826        C827   1.401       .  A
C826        H835   1.084       .  S
C827        C828   1.410       .  A
C827        S831   1.801       .  S
C828        C829   1.412       .  A
C829        C830   1.403       .  A
C829        H836   1.084       .  S
C830        S832   1.802       .  S
S831        H834   1.404       .  S
S832        H833   1.407       .  S
C837        C838   1.411   1_655  A
C837        C842   1.421       .  A
C838        C839   1.404       .  A
C838        H847   1.083       .  S
C839        C840   1.412       .  A
C839        S843   1.803       .  S
C840        C841   1.404   1_455  A
C841        C842   1.404       .  A
C841        H848   1.084       .  S
C842        S844   1.802       .  S
S843        H846   1.407       .  S
S844        H845   1.407       .  S
C849        C850   1.409       .  A
C849        C854   1.408       .  A
C850        C851   1.398       .  A
C850        H859   1.083       .  S
C851        C852   1.409       .  A
C851        S855   1.803       .  S
C852        C853   1.410       .  A
C853        C854   1.403       .  A
C853        H860   1.081       .  S
C854        S856   1.808       .  S
S855        H858   1.407       .  S
S856        H857   1.407       .  S
C861        C862   1.407       .  A
C861        C866   1.418       .  A
C862        C863   1.400       .  A
C862        H871   1.084       .  S
C863        C864   1.417       .  A
C863        S867   1.802       .  S
C864        C865   1.406       .  A
C865        C866   1.399       .  A
C865        H872   1.085       .  S
C866        S868   1.802       .  S
S867        H870   1.408       .  S
S868        H869   1.402       .  S
C873        C874   1.403   1_455  A
C873        C878   1.410       .  A
C874        C875   1.394       .  A
C874        H883   1.083       .  S
C875        C876   1.413       .  A
C875        S879   1.805       .  S
C876        C877   1.402   1_655  A
C877        C878   1.391       .  A
C877        H884   1.083       .  S
C878        S880   1.801       .  S
S879        H882   1.403       .  S
S880        H881   1.405       .  S
C885        C886   1.405       .  A
C885        C890   1.417   1_455  A
C886        C887   1.408   1_455  A
C886        H895   1.084       .  S
C887        C888   1.422       .  A
C887        S891   1.801       .  S
C888        C889   1.410       .  A
C889        C890   1.403       .  A
C889        H896   1.084       .  S
C890        S892   1.806       .  S
S891        H894   1.408       .  S
S892        H893   1.408   1_655  S
C897        C898   1.406       .  A
C897        C902   1.418       .  A
C898        C899   1.398       .  A
C898        H907   1.082       .  S
C899        C900   1.417       .  A
C899        S903   1.802       .  S
C900        C901   1.406       .  A
C901        C902   1.402       .  A
C901        H908   1.080       .  S
C902        S904   1.811       .  S
S903        H906   1.408       .  S
S904        H905   1.406       .  S
C909        C910   1.409       .  A
C909        C914   1.408       .  A
C910        C911   1.400       .  A
C910        H919   1.084       .  S
C911        C912   1.411       .  A
C911        S915   1.802       .  S
C912        C913   1.412       .  A
C913        C914   1.401       .  A
C913        H920   1.083       .  S
C914        S916   1.803       .  S
S915        H918   1.405       .  S
S916        H917   1.406       .  S
C921        C922   1.404       .  A
C921        C926   1.417       .  A
C922        C923   1.395       .  A
C922        H931   1.084       .  S
C923        C924   1.417       .  A
C923        S927   1.803       .  S
C924        C925   1.404       .  A
C925        C926   1.395       .  A
C925        H932   1.084       .  S
C926        S928   1.802       .  S
S927        H930   1.408       .  S
S928        H929   1.408       .  S
C933        C934   1.405       .  A
C933        C938   1.413       .  A
C934        C935   1.398       .  A
C934        H943   1.085       .  S
C935        C936   1.413       .  A
C935        S939   1.800       .  S
C936        C937   1.406       .  A
C937        C938   1.398       .  A
C937        H944   1.085       .  S
C938        S940   1.803       .  S
S939        H942   1.407       .  S
S940        H941   1.407       .  S
C945        C946   1.409       .  A
C945        C950   1.425       .  A
C946        C947   1.410       .  A
C946        H955   1.084   1_545  S
C947        C948   1.420       .  A
C947        S951   1.802       .  S
C948        C949   1.406       .  A
C949        C950   1.408       .  A
C949        H956   1.084       .  S
C950        S952   1.802       .  S
S951        H954   1.408       .  S
S952        H953   1.406       .  S
C957        C958   1.410       .  A
C957        C962   1.417       .  A
C958        C959   1.410       .  A
C958        H967   1.082       .  S
C959        C960   1.413       .  A
C959        S963   1.802       .  S
C960        C961   1.401       .  A
C961        C962   1.396       .  A
C961        H968   1.080       .  S
C962        S964   1.801       .  S
S963        H966   1.405       .  S
S964        H965   1.407       .  S
C969        C970   1.406       .  A
C969        C974   1.414       .  A
C970        C971   1.399       .  A
C970        H979   1.084       .  S
C971        C972   1.413       .  A
C971        S975   1.804       .  S
C972        C973   1.405       .  A
C973        C974   1.399       .  A
C973        H980   1.084       .  S
C974        S976   1.802       .  S
S975        H978   1.407   1_545  S
S976        H977   1.406       .  S
C981        C982   1.407       .  A
C981        C986   1.417       .  A
C982        C983   1.405       .  A
C982        H991   1.080       .  S
C983        C984   1.417       .  A
C983        S987   1.810       .  S
C984        C985   1.405       .  A
C985        C986   1.403       .  A
C985        H992   1.080       .  S
C986        S988   1.810       .  S
S987        H990   1.407       .  S
S988        H989   1.407       .  S
C993        C994   1.402       .  A
C993        C998   1.411       .  A
C994        C995   1.392       .  A
C994       H1003   1.085       .  S
C995        C996   1.411       .  A
C995        S999   1.801       .  S
C996        C997   1.405       .  A
C997        C998   1.397       .  A
C997       H1004   1.085       .  S
C998       S1000   1.804       .  S
S999       H1002   1.406       .  S
S1000      H1001   1.407       .  S
C1005      C1006   1.405       .  A
C1005      C1010   1.412       .  A
C1006      C1007   1.387   1_565  A
C1006      H1015   1.083       .  S
C1007      C1008   1.410       .  A
C1007      S1011   1.802       .  S
C1008      C1009   1.407       .  A
C1009      C1010   1.395   1_545  A
C1009      H1016   1.082       .  S
C1010      S1012   1.807       .  S
S1011      H1014   1.407       .  S
S1012      H1013   1.407       .  S
C1017      C1018   1.411       .  A
C1017      C1022   1.420       .  A
C1018      C1019   1.401       .  A
C1018      H1027   1.084   1_565  S
C1019      C1020   1.414       .  A
C1019      S1023   1.803       .  S
C1020      C1021   1.407       .  A
C1021      C1022   1.405       .  A
C1021      H1028   1.085       .  S
C1022      S1024   1.800       .  S
S1023      H1026   1.408       .  S
S1024      H1025   1.408       .  S
C1029      C1030   1.406       .  A
C1029      C1034   1.417       .  A
C1030      C1031   1.398       .  A
C1030      H1039   1.083       .  S
C1031      C1032   1.417       .  A
C1031      S1035   1.801       .  S
C1032      C1033   1.408       .  A
C1033      C1034   1.404       .  A
C1033      H1040   1.081       .  S
C1034      S1036   1.810       .  S
S1035      H1038   1.406       .  S
S1036      H1037   1.406   1_565  S
C1041      C1042   1.410       .  A
C1041      C1046   1.407       .  A
C1042      C1043   1.399       .  A
C1042      H1051   1.085       .  S
C1043      C1044   1.410       .  A
C1043      S1047   1.803       .  S
C1044      C1045   1.412       .  A
C1045      C1046   1.401       .  A
C1045      H1052   1.085       .  S
C1046      S1048   1.803       .  S
S1047      H1050   1.406       .  S
S1048      H1049   1.407       .  S
C1053      C1054   1.409       .  A
C1053      C1058   1.417       .  A
C1054      C1055   1.406       .  A
C1054      H1063   1.080       .  S
C1055      C1056   1.418       .  A
C1055      S1059   1.811       .  S
C1056      C1057   1.410       .  A
C1057      C1058   1.407       .  A
C1057      H1064   1.082       .  S
C1058      S1060   1.801       .  S
S1059      H1062   1.406       .  S
S1060      H1061   1.408   1_554  S
C1065      C1066   1.401   1_554  A
C1065      C1070   1.413       .  A
C1066      C1067   1.390       .  A
C1066      H1075   1.084       .  S
C1067      C1068   1.412       .  A
C1067      S1071   1.805       .  S
C1068      C1069   1.405   1_556  A
C1069      C1070   1.397       .  A
C1069      H1076   1.084       .  S
C1070      S1072   1.807       .  S
S1071      H1074   1.407       .  S
S1072      H1073   1.407       .  S
C1077      C1078   1.409       .  A
C1077      C1082   1.420       .  A
C1078      C1079   1.406       .  A
C1078      H1087   1.085       .  S
C1079      C1080   1.419       .  A
C1079      S1083   1.801       .  S
C1080      C1081   1.408       .  A
C1081      C1082   1.405       .  A
C1081      H1088   1.085       .  S
C1082      S1084   1.800       .  S
S1083      H1086   1.407       .  S
S1084      H1085   1.408       .  S
C1089      C1090   1.411       .  A
C1089      C1094   1.410       .  A
C1090      C1091   1.401       .  A
C1090      H1099   1.082       .  S
C1091      C1092   1.408       .  A
C1091      S1095   1.803       .  S
C1092      C1093   1.412       .  A
C1093      C1094   1.405       .  A
C1093      H1100   1.083       .  S
C1094      S1096   1.803       .  S
S1095      H1098   1.407       .  S
S1096      H1097   1.407       .  S
C1101      C1102   1.405       .  A
C1101      C1106   1.417       .  A
C1102      C1103   1.404       .  A
C1102      H1111   1.085       .  S
C1103      C1104   1.421       .  A
C1103      S1107   1.801       .  S
C1104      C1105   1.410       .  A
C1105      C1106   1.407       .  A
C1105      H1112   1.083       .  S
C1106      S1108   1.810       .  S
S1107      H1110   1.408       .  S
S1108      H1109   1.407       .  S
C1113      C1114   1.402       .  A
C1113      C1118   1.411       .  A
C1114      C1115   1.393       .  A
C1114      H1123   1.083       .  S
C1115      C1116   1.412       .  A
C1115      S1119   1.804       .  S
C1116      C1117   1.404       .  A
C1117      C1118   1.395       .  A
C1117      H1124   1.083       .  S
C1118      S1120   1.806       .  S
S1119      H1122   1.405       .  S
S1120      H1121   1.407       .  S
C1125      C1126   1.407       .  A
C1125      C1130   1.416       .  A
C1126      C1127   1.405       .  A
C1126      H1135   1.084       .  S
C1127      C1128   1.420       .  A
C1127      S1131   1.800       .  S
C1128      C1129   1.411       .  A
C1129      C1130   1.403       .  A
C1129      H1136   1.084       .  S
C1130      S1132   1.803       .  S
S1131      H1134   1.408       .  S
S1132      H1133   1.408       .  S
C1137      C1138   1.411       .  A
C1137      C1142   1.422       .  A
C1138      C1139   1.406       .  A
C1138      H1147   1.082       .  S
C1139      C1140   1.416       .  A
C1139      S1143   1.802       .  S
C1140      C1141   1.407       .  A
C1141      C1142   1.406       .  A
C1141      H1148   1.083       .  S
C1142      S1144   1.800       .  S
S1143      H1146   1.408       .  S
S1144      H1145   1.408       .  S
C1149      C1150   1.405       .  A
C1149      C1154   1.418       .  A
C1150      C1151   1.399       .  A
C1150      H1159   1.084       .  S
C1151      C1152   1.418       .  A
C1151      S1155   1.801       .  S
C1152      C1153   1.405       .  A
C1153      C1154   1.396       .  A
C1153      H1160   1.085       .  S
C1154      S1156   1.802       .  S
S1155      H1158   1.402       .  S
S1156      H1157   1.408       .  S
C1161      C1162   1.408       .  A
C1161      C1166   1.422       .  A
C1162      C1163   1.402       .  A
C1162      H1171   1.086       .  S
C1163      C1164   1.414       .  A
C1163      S1167   1.802       .  S
C1164      C1165   1.403       .  A
C1165      C1166   1.402       .  A
C1165      H1172   1.085       .  S
C1166      S1168   1.812       .  S
S1167      H1170   1.408       .  S
S1168      H1169   1.407       .  S
C1173      C1174   1.411       .  A
C1173      C1178   1.409       .  A
C1174      C1175   1.406       .  A
C1174      H1183   1.081       .  S
C1175      C1176   1.408       .  A
C1175      S1179   1.806       .  S
C1176      C1177   1.412       .  A
C1177      C1178   1.401       .  A
C1177      H1184   1.082       .  S
C1178      S1180   1.803       .  S
S1179      H1182   1.407       .  S
S1180      H1181   1.407       .  S
C1185      C1186   1.407       .  A
C1185      C1190   1.414       .  A
C1186      C1187   1.405       .  A
C1186      H1195   1.083       .  S
C1187      C1188   1.420       .  A
C1187      S1191   1.800       .  S
C1188      C1189   1.411       .  A
C1189      C1190   1.402       .  A
C1189      H1196   1.082       .  S
C1190      S1192   1.803       .  S
S1191      H1194   1.408       .  S
S1192      H1193   1.407       .  S
C1197      C1198   1.403       .  A
C1197      C1202   1.411       .  A
C1198      C1199   1.393       .  A
C1198      H1207   1.083       .  S
C1199      C1200   1.410       .  A
C1199      S1203   1.805       .  S
C1200      C1201   1.402       .  A
C1201      C1202   1.391       .  A
C1201      H1208   1.084       .  S
C1202      S1204   1.804       .  S
S1203      H1206   1.407       .  S
S1204      H1205   1.405       .  S
C1209      C1210   1.403       .  A
C1209      C1214   1.417       .  A
C1210      C1211   1.398       .  A
C1210      H1219   1.084       .  S
C1211      C1212   1.416       .  A
C1211      S1215   1.801       .  S
C1212      C1213   1.401       .  A
C1213      C1214   1.397       .  A
C1213      H1220   1.084       .  S
C1214      S1216   1.803       .  S
S1215      H1218   1.407       .  S
S1216      H1217   1.407       .  S
C1221      C1222   1.408       .  A
C1221      C1226   1.416       .  A
C1222      C1223   1.412       .  A
C1222      H1231   1.085       .  S
C1223      C1224   1.422       .  A
C1223      S1227   1.802       .  S
C1224      C1225   1.410       .  A
C1225      C1226   1.401       .  A
C1225      H1232   1.084       .  S
C1226      S1228   1.805       .  S
S1227      H1230   1.408       .  S
S1228      H1229   1.408       .  S
C1233      C1234   1.404       .  A
C1233      C1238   1.412       .  A
C1234      C1235   1.406       .  A
C1234      H1243   1.083       .  S
C1235      C1236   1.419       .  A
C1235      S1239   1.802       .  S
C1236      C1237   1.410       .  A
C1237      C1238   1.401       .  A
C1237      H1244   1.083       .  S
C1238      S1240   1.805   1_545  S
S1239      H1242   1.407       .  S
S1240      H1241   1.405       .  S
C1245      C1246   1.391       .  A
C1245      C1250   1.421       .  A
C1246      C1247   1.395   1_545  A
C1246      H1255   1.081       .  S
C1247      C1248   1.421       .  A
C1247      S1251   1.811       .  S
C1248      C1249   1.388       .  A
C1249      C1250   1.391   1_565  A
C1249      H1256   1.082       .  S
C1250      S1252   1.810       .  S
S1251      H1254   1.406   1_565  S
S1252      H1253   1.406   1_545  S
C1257      C1258   1.402       .  A
C1257      C1262   1.410       .  A
C1258      C1259   1.394       .  A
C1258      H1267   1.086       .  S
C1259      C1260   1.412       .  A
C1259      S1263   1.803       .  S
C1260      C1261   1.405       .  A
C1261      C1262   1.397       .  A
C1261      H1268   1.086       .  S
C1262      S1264   1.804       .  S
S1263      H1266   1.406       .  S
S1264      H1265   1.407       .  S
C1269      C1270   1.413       .  A
C1269      C1274   1.412       .  A
C1270      C1271   1.403       .  A
C1270      H1279   1.082       .  S
C1271      C1272   1.407       .  A
C1271      S1275   1.803       .  S
C1272      C1273   1.410       .  A
C1273      C1274   1.403       .  A
C1273      H1280   1.083       .  S
C1274      S1276   1.803   1_545  S
S1275      H1278   1.407       .  S
S1276      H1277   1.407       .  S
C1281      C1282   1.404       .  A
C1281      C1286   1.410       .  A
C1282      C1283   1.406       .  A
C1282      H1291   1.083       .  S
C1283      C1284   1.419       .  A
C1283      S1287   1.802       .  S
C1284      C1285   1.410       .  A
C1285      C1286   1.398       .  A
C1285      H1292   1.083       .  S
C1286      S1288   1.804       .  S
S1287      H1290   1.408       .  S
S1288      H1289   1.406       .  S
C1293      C1294   1.407       .  A
C1293      C1298   1.410       .  A
C1294      C1295   1.393       .  A
C1294      H1303   1.081       .  S
C1295      C1296   1.411       .  A
C1295      S1299   1.810       .  S
C1296      C1297   1.409       .  A
C1297      C1298   1.391       .  A
C1297      H1304   1.084       .  S
C1298      S1300   1.803       .  S
S1299      H1302   1.407       .  S
S1300      H1301   1.408       .  S
C1305      C1306   1.407       .  A
C1305      C1310   1.416       .  A
C1306      C1307   1.400       .  A
C1306      H1315   1.084       .  S
C1307      C1308   1.417       .  A
C1307      S1311   1.804       .  S
C1308      C1309   1.404       .  A
C1309      C1310   1.397       .  A
C1309      H1316   1.083       .  S
C1310      S1312   1.801       .  S
S1311      H1314   1.407       .  S
S1312      H1313   1.407       .  S
C1317      C1318   1.402       .  A
C1317      C1322   1.410       .  A
C1318      C1319   1.393       .  A
C1318      H1327   1.085       .  S
C1319      C1320   1.413       .  A
C1319      S1323   1.804       .  S
C1320      C1321   1.401       .  A
C1321      C1322   1.388       .  A
C1321      H1328   1.085       .  S
C1322      S1324   1.804       .  S
S1323      H1326   1.404       .  S
S1324      H1325   1.405       .  S
C1329      C1330   1.409       .  A
C1329      C1334   1.425       .  A
C1330      C1331   1.409       .  A
C1330      H1339   1.083       .  S
C1331      C1332   1.421       .  A
C1331      S1335   1.802       .  S
C1332      C1333   1.407       .  A
C1333      C1334   1.409       .  A
C1333      H1340   1.084       .  S
C1334      S1336   1.802       .  S
S1335      H1338   1.408   1_556  S
S1336      H1337   1.408       .  S
C1341      C1342   1.403       .  A
C1341      C1346   1.419       .  A
C1342      C1343   1.401       .  A
C1342      H1351   1.083       .  S
C1343      C1344   1.419       .  A
C1343      S1347   1.808       .  S
C1344      C1345   1.405       .  A
C1345      C1346   1.400       .  A
C1345      H1352   1.084       .  S
C1346      S1348   1.803       .  S
S1347      H1350   1.407   1_545  S
S1348      H1349   1.400       .  S
C1353      C1354   1.405       .  A
C1353      C1358   1.416       .  A
C1354      C1355   1.409       .  A
C1354      H1363   1.084       .  S
C1355      C1356   1.422       .  A
C1355      S1359   1.802       .  S
C1356      C1357   1.409       .  A
C1357      C1358   1.406       .  A
C1357      H1364   1.084       .  S
C1358      S1360   1.803   1_565  S
S1359      H1362   1.408       .  S
S1360      H1361   1.407       .  S
C1365      C1366   1.404       .  A
C1365      C1370   1.416       .  A
C1366      C1367   1.403       .  A
C1366      H1375   1.083       .  S
C1367      C1368   1.415       .  A
C1367      S1371   1.810       .  S
C1368      C1369   1.401       .  A
C1369      C1370   1.397       .  A
C1369      H1376   1.085       .  S
C1370      S1372   1.803       .  S
S1371      H1374   1.407       .  S
S1372      H1373   1.407       .  S
C1377      C1378   1.403       .  A
C1377      C1382   1.417       .  A
C1378      C1379   1.397       .  A
C1378      H1387   1.084       .  S
C1379      C1380   1.420       .  A
C1379      S1383   1.802       .  S
C1380      C1381   1.406       .  A
C1381      C1382   1.397       .  A
C1381      H1388   1.083       .  S
C1382      S1384   1.802       .  S
S1383      H1386   1.402       .  S
S1384      H1385   1.408       .  S
C1389      C1390   1.411       .  A
C1389      C1394   1.409       .  A
C1390      C1391   1.406       .  A
C1390      H1399   1.081       .  S
C1391      C1392   1.409       .  A
C1391      S1395   1.807   1_545  S
C1392      C1393   1.410       .  A
C1393      C1394   1.400       .  A
C1393      H1400   1.081       .  S
C1394      S1396   1.803       .  S
S1395      H1398   1.407       .  S
S1396      H1397   1.407       .  S
C1401      C1402   1.408       .  A
C1401      C1406   1.421       .  A
C1402      C1403   1.404       .  A
C1402      H1411   1.082       .  S
C1403      C1404   1.420       .  A
C1403      S1407   1.803       .  S
C1404      C1405   1.406       .  A
C1405      C1406   1.404       .  A
C1405      H1412   1.082       .  S
C1406      S1408   1.799       .  S
S1407      H1410   1.408       .  S
S1408      H1409   1.407       .  S
C1413      C1414   1.408       .  A
C1413      C1418   1.415       .  A
C1414      C1415   1.403       .  A
C1414      H1423   1.084       .  S
C1415      C1416   1.415       .  A
C1415      S1419   1.808       .  S
C1416      C1417   1.408       .  A
C1417      C1418   1.400       .  A
C1417      H1424   1.085       .  S
C1418      S1420   1.802       .  S
S1419      H1422   1.406       .  S
S1420      H1421   1.408       .  S
C1425      C1426   1.400       .  A
C1425      C1430   1.413       .  A
C1426      C1427   1.406       .  A
C1426      H1435   1.083       .  S
C1427      C1428   1.425       .  A
C1427      S1431   1.801       .  S
C1428      C1429   1.408       .  A
C1429      C1430   1.404       .  A
C1429      H1436   1.083       .  S
C1430      S1432   1.801       .  S
S1431      H1434   1.407       .  S
S1432      H1433   1.407       .  S
C1437      C1438   1.405       .  A
C1437      C1442   1.416       .  A
C1438      C1439   1.407       .  A
C1438      H1447   1.083       .  S
C1439      C1440   1.420       .  A
C1439      S1443   1.804       .  S
C1440      C1441   1.404       .  A
C1441      C1442   1.402       .  A
C1441      H1448   1.083       .  S
C1442      S1444   1.804       .  S
S1443      H1446   1.408       .  S
S1444      H1445   1.407       .  S
C1449      C1450   1.406       .  A
C1449      C1454   1.403       .  A
C1450      C1451   1.407       .  A
C1450      H1459   1.083       .  S
C1451      C1452   1.414       .  A
C1451      S1455   1.805       .  S
C1452      C1453   1.410       .  A
C1453      C1454   1.390       .  A
C1453      H1460   1.082       .  S
C1454      S1456   1.806       .  S
S1455      H1458   1.408       .  S
S1456      H1457   1.407       .  S
C1461      C1462   1.405       .  A
C1461      C1466   1.413       .  A
C1462      C1463   1.400       .  A
C1462      H1471   1.083       .  S
C1463      C1464   1.413       .  A
C1463      S1467   1.801       .  S
C1464      C1465   1.407       .  A
C1465      C1466   1.403       .  A
C1465      H1472   1.083       .  S
C1466      S1468   1.802       .  S
S1467      H1470   1.406       .  S
S1468      H1469   1.407       .  S
C1473      C1474   1.410       .  A
C1473      C1478   1.406       .  A
C1474      C1475   1.405       .  A
C1474      H1483   1.083       .  S
C1475      C1476   1.412       .  A
C1475      S1479   1.800       .  S
C1476      C1477   1.414       .  A
C1477      C1478   1.403       .  A
C1477      H1484   1.083       .  S
C1478      S1480   1.802       .  S
S1479      H1482   1.407       .  S
S1480      H1481   1.405       .  S
C1485      C1486   1.407       .  A
C1485      C1490   1.424   1_455  A
C1486      C1487   1.402       .  A
C1486      H1495   1.082       .  S
C1487      C1488   1.418   1_455  A
C1487      S1491   1.802       .  S
C1488      C1489   1.404       .  A
C1489      C1490   1.407       .  A
C1489      H1496   1.082       .  S
C1490      S1492   1.802       .  S
S1491      H1494   1.408   1_455  S
S1492      H1493   1.408   1_655  S
C1497      C1498   1.402       .  A
C1497      C1502   1.413       .  A
C1498      C1499   1.394   1_655  A
C1498      H1507   1.084   1_655  S
C1499      C1500   1.415   1_455  A
C1499      S1503   1.807       .  S
C1500      C1501   1.403       .  A
C1501      C1502   1.393       .  A
C1501      H1508   1.084       .  S
C1502      S1504   1.805       .  S
S1503      H1506   1.407       .  S
S1504      H1505   1.407       .  S
C1509      C1510   1.404       .  A
C1509      C1514   1.414       .  A
C1510      C1511   1.395       .  A
C1510      H1519   1.084       .  S
C1511      C1512   1.413       .  A
C1511      S1515   1.804       .  S
C1512      C1513   1.403       .  A
C1513      C1514   1.394       .  A
C1513      H1520   1.084       .  S
C1514      S1516   1.804       .  S
S1515      H1518   1.408       .  S
S1516      H1517   1.407       .  S
C1521      C1522   1.408       .  A
C1521      C1526   1.419       .  A
C1522      C1523   1.396       .  A
C1522      H1531   1.084       .  S
C1523      C1524   1.411       .  A
C1523      S1527   1.803       .  S
C1524      C1525   1.406       .  A
C1525      C1526   1.401       .  A
C1525      H1532   1.085       .  S
C1526      S1528   1.802       .  S
S1527      H1530   1.408       .  S
S1528      H1529   1.402       .  S
C1533      C1534   1.409       .  A
C1533      C1538   1.410       .  A
C1534      C1535   1.393       .  A
C1534      H1543   1.083       .  S
C1535      C1536   1.412       .  A
C1535      S1539   1.803       .  S
C1536      C1537   1.407       .  A
C1537      C1538   1.390       .  A
C1537      H1544   1.081       .  S
C1538      S1540   1.801       .  S
S1539      H1542   1.408       .  S
S1540      H1541   1.407       .  S
C1545      C1546   1.408       .  A
C1545      C1550   1.420       .  A
C1546      C1547   1.407       .  A
C1546      H1555   1.083       .  S
C1547      C1548   1.420       .  A
C1547      S1551   1.802       .  S
C1548      C1549   1.410       .  A
C1549      C1550   1.411       .  A
C1549      H1556   1.082       .  S
C1550      S1552   1.809       .  S
S1551      H1554   1.408       .  S
S1552      H1553   1.407       .  S
C1557      C1558   1.407       .  A
C1557      C1562   1.417       .  A
C1558      C1559   1.411       .  A
C1558      H1567   1.083       .  S
C1559      C1560   1.424       .  A
C1559      S1563   1.802       .  S
C1560      C1561   1.410       .  A
C1561      C1562   1.405       .  A
C1561      H1568   1.083       .  S
C1562      S1564   1.804       .  S
S1563      H1566   1.408       .  S
S1564      H1565   1.408       .  S
C1569      C1570   1.404       .  A
C1569      C1574   1.416       .  A
C1570      C1571   1.395       .  A
C1570      H1579   1.084       .  S
C1571      C1572   1.416       .  A
C1571      S1575   1.802   1_455  S
C1572      C1573   1.408       .  A
C1573      C1574   1.400       .  A
C1573      H1580   1.084       .  S
C1574      S1576   1.804       .  S
S1575      H1578   1.402   1_655  S
S1576      H1577   1.407       .  S
C1581      C1582   1.405       .  A
C1581      C1586   1.415       .  A
C1582      C1583   1.404       .  A
C1582      H1591   1.083       .  S
C1583      C1584   1.419       .  A
C1583      S1587   1.810       .  S
C1584      C1585   1.406       .  A
C1585      C1586   1.398       .  A
C1585      H1592   1.085       .  S
C1586      S1588   1.804       .  S
S1587      H1590   1.406       .  S
S1588      H1589   1.408       .  S
C1593      C1594   1.411       .  A
C1593      C1598   1.408       .  A
C1594      C1595   1.406       .  A
C1594      H1603   1.083       .  S
C1595      C1596   1.411       .  A
C1595      S1599   1.808       .  S
C1596      C1597   1.413       .  A
C1597      C1598   1.403       .  A
C1597      H1604   1.084       .  S
C1598      S1600   1.802       .  S
S1599      H1602   1.407       .  S
S1600      H1601   1.407       .  S
C1605      C1606   1.408       .  A
C1605      C1610   1.418       .  A
C1606      C1607   1.408   1_655  A
C1606      H1615   1.084   1_655  S
C1607      C1608   1.422       .  A
C1607      S1611   1.801       .  S
C1608      C1609   1.411   1_455  A
C1609      C1610   1.407       .  A
C1609      H1616   1.084       .  S
C1610      S1612   1.803       .  S
S1611      H1614   1.408       .  S
S1612      H1613   1.408       .  S
C1617      C1618   1.404       .  A
C1617      C1622   1.412       .  A
C1618      C1619   1.400       .  A
C1618      H1627   1.082       .  S
C1619      C1620   1.413       .  A
C1619      S1623   1.807       .  S
C1620      C1621   1.407       .  A
C1621      C1622   1.398       .  A
C1621      H1628   1.083       .  S
C1622      S1624   1.803       .  S
S1623      H1626   1.406   1_655  S
S1624      H1625   1.407       .  S
C1629      C1630   1.411       .  A
C1629      C1634   1.418       .  A
C1630      C1631   1.402       .  A
C1630      H1639   1.082       .  S
C1631      C1632   1.412   1_655  A
C1631      S1635   1.805   1_665  S
C1632      C1633   1.405       .  A
C1633      C1634   1.408   1_455  A
C1633      H1640   1.082       .  S
C1634      S1636   1.799       .  S
S1635      H1638   1.406       .  S
S1636      H1637   1.407       .  S
C1641      C1642   1.409   1_656  A
C1641      C1646   1.410       .  A
C1642      C1643   1.392   1_545  A
C1642      H1651   1.082       .  S
C1643      C1644   1.412   1_454  A
C1643      S1647   1.803       .  S
C1644      C1645   1.408       .  A
C1645      C1646   1.390   1_565  A
C1645      H1652   1.081       .  S
C1646      S1648   1.803       .  S
S1647      H1650   1.408       .  S
S1648      H1649   1.408       .  S
C1653      C1654   1.410       .  A
C1653      C1658   1.423   1_455  A
C1654      C1655   1.404       .  A
C1654      H1663   1.083       .  S
C1655      C1656   1.418   1_455  A
C1655      S1659   1.805       .  S
C1656      C1657   1.405       .  A
C1657      C1658   1.407       .  A
C1657      H1664   1.083       .  S
C1658      S1660   1.800       .  S
S1659      H1662   1.408   1_455  S
S1660      H1661   1.408       .  S
C1665      C1666   1.404       .  A
C1665      C1670   1.413       .  A
C1666      C1667   1.397       .  A
C1666      H1675   1.083       .  S
C1667      C1668   1.411       .  A
C1667      S1671   1.804       .  S
C1668      C1669   1.405       .  A
C1669      C1670   1.399       .  A
C1669      H1676   1.083       .  S
C1670      S1672   1.803       .  S
S1671      H1674   1.407       .  S
S1672      H1673   1.407   1_545  S
C1677      C1678   1.409       .  A
C1677      C1682   1.422       .  A
C1678      C1679   1.406       .  A
C1678      H1687   1.084       .  S
C1679      C1680   1.417       .  A
C1679      S1683   1.803       .  S
C1680      C1681   1.406       .  A
C1681      C1682   1.407       .  A
C1681      H1688   1.082   1_545  S
C1682      S1684   1.811       .  S
S1683      H1686   1.408   1_556  S
S1684      H1685   1.407   1_545  S
C1689      C1690   1.412       .  A
C1689      C1694   1.409       .  A
C1690      C1691   1.399       .  A
C1690      H1699   1.084       .  S
C1691      C1692   1.407       .  A
C1691      S1695   1.803       .  S
C1692      C1693   1.410       .  A
C1693      C1694   1.399       .  A
C1693      H1700   1.084       .  S
C1694      S1696   1.803       .  S
S1695      H1698   1.407       .  S
S1696      H1697   1.407       .  S
C1701      C1702   1.408       .  A
C1701      C1706   1.415       .  A
C1702      C1703   1.402       .  A
C1702      H1711   1.083       .  S
C1703      C1704   1.418       .  A
C1703      S1707   1.803       .  S
C1704      C1705   1.410       .  A
C1705      C1706   1.404       .  A
C1705      H1712   1.082       .  S
C1706      S1708   1.802       .  S
S1707      H1710   1.408       .  S
S1708      H1709   1.408       .  S
C1713      C1714   1.408       .  A
C1713      C1718   1.412   1_556  A
C1714      C1715   1.396       .  A
C1714      H1723   1.084       .  S
C1715      C1716   1.414       .  A
C1715      S1719   1.801       .  S
C1716      C1717   1.407   1_556  A
C1717      C1718   1.392       .  A
C1717      H1724   1.084       .  S
C1718      S1720   1.801       .  S
S1719      H1722   1.407       .  S
S1720      H1721   1.407       .  S
C1725      C1726   1.406       .  A
C1725      C1730   1.420       .  A
C1726      C1727   1.400       .  A
C1726      H1735   1.083       .  S
C1727      C1728   1.420       .  A
C1727      S1731   1.803       .  S
C1728      C1729   1.404       .  A
C1729      C1730   1.399       .  A
C1729      H1736   1.084       .  S
C1730      S1732   1.801       .  S
S1731      H1734   1.408       .  S
S1732      H1733   1.404       .  S
C1737      C1738   1.404       .  A
C1737      C1742   1.414       .  A
C1738      C1739   1.408   1_655  A
C1738      H1747   1.082       .  S
C1739      C1740   1.420       .  A
C1739      S1743   1.799       .  S
C1740      C1741   1.412       .  A
C1741      C1742   1.407   1_455  A
C1741      H1748   1.083       .  S
C1742      S1744   1.804   1_545  S
S1743      H1746   1.407       .  S
S1744      H1745   1.405       .  S
C1749      C1750   1.407       .  A
C1749      C1754   1.419       .  A
C1750      C1751   1.398       .  A
C1750      H1759   1.083       .  S
C1751      C1752   1.417       .  A
C1751      S1755   1.801       .  S
C1752      C1753   1.406       .  A
C1753      C1754   1.403       .  A
C1753      H1760   1.083       .  S
C1754      S1756   1.801       .  S
S1755      H1758   1.407       .  S
S1756      H1757   1.408       .  S
C1761      C1762   1.409       .  A
C1761      C1766   1.418       .  A
C1762      C1763   1.408   1_655  A
C1762      H1771   1.083   1_655  S
C1763      C1764   1.420       .  A
C1763      S1767   1.801       .  S
C1764      C1765   1.410   1_455  A
C1765      C1766   1.404       .  A
C1765      H1772   1.083       .  S
C1766      S1768   1.803       .  S
S1767      H1770   1.406       .  S
S1768      H1769   1.408       .  S
C1773      C1774   1.402       .  A
C1773      C1778   1.412   1_655  A
C1774      C1775   1.393       .  A
C1774      H1783   1.084       .  S
C1775      C1776   1.412       .  A
C1775      S1779   1.805       .  S
C1776      C1777   1.403       .  A
C1777      C1778   1.397   1_655  A
C1777      H1784   1.083   1_655  S
C1778      S1780   1.810       .  S
S1779      H1782   1.406       .  S
S1780      H1781   1.407       .  S
C1785      C1786   1.405       .  A
C1785      C1790   1.412       .  A
C1786      C1787   1.391       .  A
C1786      H1795   1.084       .  S
C1787      C1788   1.412       .  A
C1787      S1791   1.801       .  S
C1788      C1789   1.407       .  A
C1789      C1790   1.396       .  A
C1789      H1796   1.084       .  S
C1790      S1792   1.801       .  S
S1791      H1794   1.406       .  S
S1792      H1793   1.407       .  S
C1797      C1798   1.405       .  A
C1797      C1802   1.418       .  A
C1798      C1799   1.409       .  A
C1798      H1807   1.081       .  S
C1799      C1800   1.423       .  A
C1799      S1803   1.810       .  S
C1800      C1801   1.409       .  A
C1801      C1802   1.404       .  A
C1801      H1808   1.082       .  S
C1802      S1804   1.803   1_565  S
S1803      H1806   1.407       .  S
S1804      H1805   1.408       .  S
C1809      C1810   1.407       .  A
C1809      C1814   1.412       .  A
C1810      C1811   1.388   1_565  A
C1810      H1819   1.086       .  S
C1811      C1812   1.410       .  A
C1811      S1815   1.802       .  S
C1812      C1813   1.408       .  A
C1813      C1814   1.396   1_545  A
C1813      H1820   1.084       .  S
C1814      S1816   1.810       .  S
S1815      H1818   1.407       .  S
S1816      H1817   1.407       .  S
C1821      C1822   1.408       .  A
C1821      C1826   1.419       .  A
C1822      C1823   1.405       .  A
C1822      H1831   1.082       .  S
C1823      C1824   1.416       .  A
C1823      S1827   1.809       .  S
C1824      C1825   1.406       .  A
C1825      C1826   1.404       .  A
C1825      H1832   1.082       .  S
C1826      S1828   1.810       .  S
S1827      H1830   1.407       .  S
S1828      H1829   1.407       .  S
C1833      C1834   1.412       .  A
C1833      C1838   1.409       .  A
C1834      C1835   1.404       .  A
C1834      H1843   1.082       .  S
C1835      C1836   1.406       .  A
C1835      S1839   1.806       .  S
C1836      C1837   1.410       .  A
C1837      C1838   1.400       .  A
C1837      H1844   1.083       .  S
C1838      S1840   1.802       .  S
S1839      H1842   1.407       .  S
S1840      H1841   1.404       .  S
C1845      C1846   1.406       .  A
C1845      C1850   1.418       .  A
C1846      C1847   1.401       .  A
C1846      H1855   1.085       .  S
C1847      C1848   1.418       .  A
C1847      S1851   1.803       .  S
C1848      C1849   1.410       .  A
C1849      C1850   1.405       .  A
C1849      H1856   1.085       .  S
C1850      S1852   1.802       .  S
S1851      H1854   1.408       .  S
S1852      H1853   1.406       .  S
