geometry optimzed in LAMMPS
_audit_creation_date              2020-12-01 
_audit_creation_method            'lammps2cif' 
_symmetry_space_group_name_H-M    'P1' 
_symmetry_Int_Tables_number       1 
_symmetry_cell_setting            triclinic 
loop_ 
_symmetry_equiv_pos_as_xyz 
  x,y,z 
_cell_length_a                    28.0787951 
_cell_length_b                    44.075036487057254 
_cell_length_c                    29.05740915640533 
_cell_angle_alpha                 89.95986661525893 
_cell_angle_beta                  89.66510863246604 
_cell_angle_gamma                 89.87240148670712 
loop_ 
_atom_site_label 
_atom_site_type_symbol 
_atom_site_fract_x 
_atom_site_fract_y 
_atom_site_fract_z 
_atom_site_charge 
O1          O  0.90059860  0.64226237  0.91180338    -0.84700
O2          O  0.92147457  0.69831727  0.94596146    -0.81700
C3          C  0.91637991  0.72551312  0.95815600     0.98800
O4          O  0.87516757  0.73574562  0.96667203    -0.81700
O5          O  0.82148225  0.73262243  0.88584065    -0.84400
C6          C  0.79504213  0.72204909  0.85470838     1.03300
O7          O  0.77566768  0.69634458  0.86006549    -0.77200
O8          O  0.85276124  0.65785524  0.85706403    -0.77300
C9          C  0.89240936  0.64706263  0.86954037     1.03300
O10         O  0.84057781  0.63142643  0.99129377    -0.84700
O11         O  0.86518951  0.68642436  0.02746371    -0.81700
C12         C  0.82716302  0.69852979  0.04246152     0.98800
O13         O  0.79682397  0.70923713  0.01505829    -0.81800
O14         O  0.74136744  0.71235834  0.93880363    -0.84400
C15         C  0.71778948  0.68816564  0.94385567     1.03300
O16         O  0.73724167  0.66266961  0.93679334    -0.77200
O17         O  0.80947856  0.61956709  0.92510091    -0.77300
C18         C  0.82133584  0.61218006  0.96546520     1.03300
Cr19       Cr  0.87804128  0.66585514  0.96689366     1.93700
Cr20       Cr  0.81043068  0.71967334  0.95050344     1.93200
Cr21       Cr  0.79612331  0.66057376  0.89789808     1.39100
O22         O  0.82848983  0.68200545  0.93851240    -1.22400
O23         O  0.89583317  0.35833732  0.11008618    -0.84700
O24         O  0.91162352  0.30300988  0.07047222    -0.81700
C25         C  0.90434943  0.27664598  0.05564163     0.98800
O26         O  0.86231199  0.26819974  0.04714257    -0.81700
O27         O  0.81425430  0.26921070  0.13228534    -0.84400
C28         C  0.79041309  0.27935669  0.16598271     1.03300
O29         O  0.77101707  0.30533724  0.16367429    -0.77200
O30         O  0.84808974  0.34345386  0.16587868    -0.77300
C31         C  0.88786679  0.35374819  0.15261835     1.03300
O32         O  0.83288027  0.37321050  0.03432551    -0.84700
O33         O  0.85195087  0.31924406  0.99264606    -0.81700
C34         C  0.81220134  0.30899632  0.97893815     0.98800
O35         O  0.78250392  0.29835582  0.00732601    -0.81800
O36         O  0.73106238  0.29248386  0.08686895    -0.84400
C37         C  0.70837122  0.31721066  0.08375445     1.03300
O38         O  0.72938051  0.34205062  0.09136249    -0.77200
O39         O  0.80355205  0.38387559  0.10207991    -0.77300
C40         C  0.81501233  0.39210545  0.06181906     1.03300
Cr41       Cr  0.86926908  0.33726381  0.05424317     1.93700
Cr42       Cr  0.79943026  0.28477385  0.06965898     1.93200
Cr43       Cr  0.79006194  0.34223108  0.12737554     1.39100
O44         O  0.82000993  0.32149284  0.08384152    -1.22400
O45         O  0.39724023  0.14904509  0.92180339    -0.84700
O46         O  0.41214263  0.20440244  0.96242283    -0.81700
C47         C  0.40375737  0.23111115  0.97565653     0.98800
O48         O  0.36128547  0.23938151  0.98302650    -0.81700
O49         O  0.31216976  0.23568099  0.89939319    -0.84400
C50         C  0.28702647  0.22512732  0.86732463     1.03300
O51         O  0.26837761  0.19914633  0.87122032    -0.77200
O52         O  0.34767159  0.16307259  0.86719432    -0.77300
C53         C  0.38787692  0.15317463  0.87947181     1.03300
O54         O  0.33605785  0.13216201  0.99862730    -0.84700
O55         O  0.35220130  0.18710239  0.04011174    -0.81700
C56         C  0.31270563  0.19817481  0.05365977     0.98800
O57         O  0.28343574  0.20904238  0.02547494    -0.81800
O58         O  0.23089397  0.21207810  0.94820363    -0.84400
C59         C  0.20954757  0.18700915  0.95273690     1.03300
O60         O  0.23127690  0.16236550  0.94513160    -0.77200
O61         O  0.30681632  0.12187732  0.93118313    -0.77300
C62         C  0.31867843  0.11327735  0.97090791     1.03300
Cr63       Cr  0.37053733  0.16935452  0.97848845     1.93700
Cr64       Cr  0.29902908  0.22131075  0.96273005     1.93200
Cr65       Cr  0.29068267  0.16315408  0.90711615     1.39100
O66         O  0.32058024  0.18453782  0.94956981    -1.22400
O67         O  0.40077900  0.85715156  0.10105846    -0.84700
O68         O  0.41816173  0.80135815  0.06302094    -0.81700
C69         C  0.41092770  0.77489309  0.04846525     0.98800
O70         O  0.36914117  0.76629495  0.03968950    -0.81700
O71         O  0.32093755  0.76728964  0.12401538    -0.84400
C72         C  0.29611251  0.77704118  0.15722710     1.03300
O73         O  0.27685669  0.80306380  0.15496176    -0.77200
O74         O  0.35379065  0.84103798  0.15663151    -0.77300
C75         C  0.39356605  0.85122868  0.14324875     1.03300
O76         O  0.33827215  0.87124417  0.02497211    -0.84700
O77         O  0.35894949  0.81651020  0.98459511    -0.81700
C78         C  0.31982733  0.80542841  0.97078284     0.98800
O79         O  0.28961890  0.79538481  0.99908933    -0.81800
O80         O  0.23815290  0.78978793  0.07831151    -0.84400
C81         C  0.21505948  0.81425654  0.07441095     1.03300
O82         O  0.23521604  0.83935247  0.08213780    -0.77200
O83         O  0.30835480  0.88153185  0.09272229    -0.77300
C84         C  0.31925209  0.88988317  0.05236264     1.03300
Cr85       Cr  0.37525658  0.83538880  0.04567764     1.93700
Cr86       Cr  0.30626692  0.78244077  0.06147820     1.93200
Cr87       Cr  0.29565326  0.83992715  0.11840710     1.39100
O88         O  0.32603780  0.81937503  0.07512500    -1.22400
O89         O  0.14877281  0.35705665  0.42482444    -0.84700
O90         O  0.13094561  0.30125351  0.46271526    -0.81700
C91         C  0.13778475  0.27430901  0.47559627     0.98800
O92         O  0.17957398  0.26485034  0.48237214    -0.81700
O93         O  0.22668874  0.26765101  0.39774638    -0.84400
C94         C  0.25021477  0.27845374  0.36444407     1.03300
O95         O  0.27220450  0.30325109  0.36918809    -0.77200
O96         O  0.19553537  0.34160617  0.36843885    -0.77300
C97         C  0.15596542  0.35208374  0.38229352     1.03300
O98         O  0.21293410  0.36995729  0.50072362    -0.84700
O99         O  0.19191610  0.31499202  0.53980468    -0.81700
C100        C  0.23042649  0.30262785  0.55281065     0.98800
O101        O  0.25965186  0.29199681  0.52395693    -0.81800
O102        O  0.31073421  0.28817393  0.44452646    -0.84400
C103        C  0.33318217  0.31246221  0.45180597     1.03300
O104        O  0.31369401  0.33777231  0.44352072    -0.77200
O105        O  0.24122296  0.38043036  0.43258496    -0.77300
C106        C  0.23165023  0.38855860  0.47317967     1.03300
Cr107      Cr  0.17486260  0.33463545  0.47968652     1.93700
Cr108      Cr  0.24244500  0.28091302  0.46098002     1.93200
Cr109      Cr  0.25372229  0.33935556  0.40657480     1.39100
O110        O  0.22321809  0.31838314  0.44921075    -1.22400
O111        O  0.15828770  0.64257268  0.60014676    -0.84700
O112        O  0.13907702  0.69759679  0.56178607    -0.81700
C113        C  0.14479631  0.72494545  0.55062719     0.98800
O114        O  0.18633608  0.73519950  0.54424765    -0.81700
O115        O  0.23687623  0.73225410  0.62663895    -0.84400
C116        C  0.26214602  0.72191238  0.65882366     1.03300
O117        O  0.28215607  0.69635259  0.65442666    -0.77200
O118        O  0.20341281  0.65912878  0.65640238    -0.77300
C119        C  0.16444700  0.64809684  0.64259157     1.03300
O120        O  0.22271782  0.62975378  0.52407404    -0.84700
O121        O  0.20000873  0.68410901  0.48388282    -0.81700
C122        C  0.23791280  0.69698182  0.47024045     0.98800
O123        O  0.26635871  0.70837544  0.49872125    -0.81800
O124        O  0.31912797  0.71063522  0.57622742    -0.84400
C125        C  0.34118575  0.68582673  0.57064472     1.03300
O126        O  0.32153205  0.66088236  0.58063224    -0.77200
O127        O  0.24833465  0.61904119  0.59280145    -0.77300
C128        C  0.23943261  0.61086347  0.55219600     1.03300
Cr129      Cr  0.18381542  0.66477457  0.54476217     1.93700
Cr130      Cr  0.25041539  0.71884163  0.56267603     1.93200
Cr131      Cr  0.26176170  0.66035379  0.61784346     1.39100
O132        O  0.23164367  0.68135269  0.57489829    -1.22400
O133        O  0.65085069  0.13984137  0.60951005    -0.84700
O134        O  0.62923072  0.19506981  0.57337282    -0.81700
C135        C  0.63398471  0.22283375  0.56440462     0.98800
O136        O  0.67505724  0.23366989  0.55765258    -0.81700
O137        O  0.72366151  0.23045854  0.64020095    -0.84400
C138        C  0.74940522  0.22075655  0.67239163     1.03300
O139        O  0.77090590  0.19558919  0.66784097    -0.77200
O140        O  0.69561040  0.15614453  0.66620750    -0.77300
C141        C  0.65692579  0.14504747  0.65213463     1.03300
O142        O  0.71689277  0.12948528  0.53305113    -0.84700
O143        O  0.69233156  0.18460561  0.49498181    -0.81700
C144        C  0.72966412  0.19885841  0.48270530     0.98800
O145        O  0.75730534  0.20970511  0.51238117    -0.81800
O146        O  0.80854160  0.21208975  0.59121422    -0.84400
C147        C  0.83283733  0.18810759  0.58588945     1.03300
O148        O  0.81409558  0.16241012  0.59243343    -0.77200
O149        O  0.74333705  0.11822169  0.60129497    -0.77300
C150        C  0.73469662  0.11042789  0.56035702     1.03300
Cr151      Cr  0.67606260  0.16351183  0.55503332     1.93700
Cr152      Cr  0.73956458  0.21856504  0.57629894     1.93200
Cr153      Cr  0.75385909  0.15951065  0.62867924     1.39100
O154        O  0.72284399  0.18047500  0.58641007    -1.22400
O155        O  0.65659874  0.85887156  0.41045036    -0.84700
O156        O  0.63596345  0.80319790  0.44657058    -0.81700
C157        C  0.64161224  0.77605354  0.45888750     0.98800
O158        O  0.68287553  0.76635845  0.46769623    -0.81700
O159        O  0.73507442  0.76869630  0.38571589    -0.84400
C160        C  0.76203703  0.77868012  0.35429004     1.03300
O161        O  0.78117620  0.80455784  0.35835709    -0.77200
O162        O  0.70544793  0.84391912  0.35553853    -0.77300
C163        C  0.66540516  0.85424280  0.36809620     1.03300
O164        O  0.71703063  0.87082114  0.48900961    -0.84700
O165        O  0.69339634  0.81592558  0.52706991    -0.81700
C166        C  0.73157116  0.80367302  0.54132691     0.98800
O167        O  0.76163317  0.79308590  0.51329915    -0.81800
O168        O  0.81601092  0.78878489  0.43601459    -0.84400
C169        C  0.84015991  0.81270877  0.44067817     1.03300
O170        O  0.82107331  0.83836115  0.43401818    -0.77200
O171        O  0.74948736  0.88214876  0.42282823    -0.77300
C172        C  0.73700156  0.88985582  0.46303762     1.03300
Cr173      Cr  0.67965874  0.83599063  0.46600323     1.93700
Cr174      Cr  0.74713270  0.78212886  0.44957792     1.93200
Cr175      Cr  0.76191121  0.84082444  0.39591303     1.39100
O176        O  0.72919768  0.81973497  0.43717581    -1.22400
C177        C  0.75733847  0.02507957  0.56361568    -0.27500
C178        C  0.75124249  0.01674951  0.51733043     0.06100
C179        C  0.74212793  0.03982017  0.48487671     0.25700
C180        C  0.73826917  0.07022715  0.49881059    -0.12000
C181        C  0.74307750  0.07843349  0.54535865    -0.26000
C182        C  0.75322870  0.05537983  0.57760224     0.36500
C183        C  0.75063802  0.98390426  0.50430764     0.06100
F184        F  0.73425017  0.03293077  0.44005839    -0.19700
H185        H  0.73026307  0.08729475  0.47317982     0.15900
F186        F  0.75744122  0.06176886  0.62308496    -0.23500
H187        H  0.76449083  0.00791873  0.58935093     0.17700
C188        C  0.77475508  0.97287179  0.46504932     0.25700
C189        C  0.77090938  0.94225708  0.45230088    -0.12000
C190        C  0.74376613  0.92176844  0.47878601    -0.26000
C191        C  0.72146010  0.93258565  0.51917564     0.36600
C192        C  0.72469536  0.96321717  0.53143114    -0.27600
F193        F  0.80270364  0.99148400  0.43934758    -0.19800
H194        H  0.78914666  0.93461442  0.42149299     0.15900
F195        F  0.69518594  0.91386833  0.54633165    -0.23500
H196        H  0.70576253  0.97093691  0.56180467     0.17700
C197        C  0.56382998  0.71094360  0.50064536    -0.27500
C198        C  0.51808272  0.72239002  0.49232263     0.06100
C199        C  0.51322057  0.75029206  0.46928552     0.25700
C200        C  0.55354949  0.76695176  0.45653948    -0.12000
C201        C  0.59954581  0.75616208  0.46646184    -0.26000
C202        C  0.60424620  0.72743427  0.48757113     0.36500
C203        C  0.47568451  0.70684752  0.51158278     0.06100
F204        F  0.46943502  0.76237480  0.46173007    -0.19700
H205        H  0.54863137  0.78889273  0.44040162     0.15900
F206        F  0.64774461  0.71574122  0.49751966    -0.23500
H207        H  0.56821208  0.68948392  0.51835855     0.17700
C208        C  0.43707419  0.69910273  0.48338439     0.25700
C209        C  0.39430623  0.68921682  0.50310609    -0.12000
C210        C  0.38936305  0.68711269  0.55104194    -0.26000
C211        C  0.42866511  0.69309942  0.57915128     0.36600
C212        C  0.47175412  0.70257909  0.55941992    -0.27600
F213        F  0.44005237  0.70240623  0.43700836    -0.19800
H214        H  0.36406049  0.68494198  0.48112023     0.15900
F215        F  0.42434835  0.69181877  0.62566314    -0.23500
H216        H  0.50108104  0.70853101  0.58170435     0.17700
C217        C  0.96041529  0.77629899  0.45048761    -0.27500
C218        C  0.97835373  0.79008190  0.49015428     0.06100
C219        C  0.95373654  0.81481324  0.50963927     0.25700
C220        C  0.91005822  0.82431659  0.49098323    -0.12000
C221        C  0.89073816  0.80908367  0.45296752    -0.26000
C222        C  0.91709685  0.78563323  0.43202551     0.36500
C223        C  0.02023714  0.77622268  0.51259535     0.06100
F224        F  0.97027492  0.82832745  0.54830524    -0.19700
H225        H  0.88986617  0.84201862  0.50807945     0.15900
F226        F  0.89961318  0.77063953  0.39497913    -0.23500
H227        H  0.97910599  0.75733486  0.43495726     0.17700
C228        C  0.01595305  0.74752841  0.53316367     0.25700
C229        C  0.05640138  0.73185248  0.54783804    -0.12000
C230        C  0.10217439  0.74424413  0.54178643    -0.26000
C231        C  0.10613285  0.77373615  0.52303601     0.36600
C232        C  0.06536192  0.78953403  0.50868876    -0.27600
F233        F  0.97263890  0.73412347  0.53727816    -0.19800
H234        H  0.05188354  0.70935116  0.56222543     0.15900
F235        F  0.14936971  0.78676078  0.51634719    -0.23500
H236        H  0.06921342  0.81154609  0.49249215     0.17700
C237        C  0.46090560  0.28868701  0.46524187    -0.27500
C238        C  0.46563810  0.28933466  0.51331902     0.06100
C239        C  0.42858463  0.30159927  0.54024089     0.25700
C240        C  0.38681178  0.31206848  0.51921611    -0.12000
C241        C  0.38125143  0.30999688  0.47129886    -0.26000
C242        C  0.41880755  0.29849690  0.44438534     0.36500
C243        C  0.50809531  0.27512925  0.53442448     0.06100
F244        F  0.43216811  0.30249337  0.58678018    -0.19700
H245        H  0.35761214  0.32003416  0.54056703     0.15900
F246        F  0.41369880  0.29518652  0.39823982    -0.23500
H247        H  0.48896668  0.27906768  0.44404507     0.17700
C248        C  0.50433686  0.24741613  0.55812869     0.25700
C249        C  0.54545861  0.23111231  0.56984942    -0.12000
C250        C  0.59102182  0.24233784  0.55863618    -0.26000
C251        C  0.59445531  0.27128737  0.53810826     0.36600
C252        C  0.55334247  0.28721694  0.52564811    -0.27600
F253        F  0.46094233  0.23518015  0.56717637    -0.19800
H254        H  0.54153709  0.20913509  0.58615214     0.15900
F255        F  0.63742688  0.28358719  0.52761111    -0.23500
H256        H  0.55680429  0.30860499  0.50753687     0.17700
C257        C  0.06039483  0.21520492  0.53421106    -0.27500
C258        C  0.01565913  0.22164972  0.51545435     0.06100
C259        C  0.01188602  0.24364702  0.48064159     0.25700
C260        C  0.05204816  0.26002862  0.46648828    -0.12000
C261        C  0.09673935  0.25434903  0.48626182    -0.26000
C262        C  0.10078256  0.23108109  0.51943683     0.36500
C263        C  0.97226320  0.20846680  0.53627071     0.06100
F264        F  0.96882437  0.25051977  0.46233547    -0.19700
H265        H  0.04797548  0.27771460  0.44091040     0.15900
F266        F  0.14311324  0.22494779  0.53983077    -0.23500
H267        H  0.06372485  0.19851232  0.56138807     0.17700
C268        C  0.94301326  0.18850209  0.51155315     0.25700
C269        C  0.89881159  0.17965526  0.52975726    -0.12000
C270        C  0.88307999  0.19118192  0.57223603    -0.26000
C271        C  0.91318956  0.21019125  0.59762992     0.36600
C272        C  0.95770086  0.21841002  0.57998147    -0.27600
F273        F  0.95641874  0.17858568  0.46920461    -0.19800
H274        H  0.87559394  0.16543730  0.50940946     0.15900
F275        F  0.89859124  0.22182669  0.63862108    -0.23500
H276        H  0.97978963  0.23391622  0.59933256     0.17700
C277        C  0.23568170  0.46209851  0.54196743    -0.27500
C278        C  0.24862193  0.48302427  0.50759311     0.06100
C279        C  0.25986085  0.47227782  0.46336880     0.25700
C280        C  0.25566012  0.44147272  0.45314501    -0.12000
C281        C  0.24030009  0.42057767  0.48674075    -0.26000
C282        C  0.23149989  0.43113543  0.53178106     0.36500
C283        C  0.24864135  0.51603981  0.51753616     0.06100
F284        F  0.27478691  0.49161192  0.42990047    -0.19700
H285        H  0.26350900  0.43412611  0.41836418     0.15900
F286        F  0.21802253  0.41178167  0.56577024    -0.23500
H287        H  0.22734916  0.46989124  0.57643222     0.17700
C288        C  0.22296338  0.53635732  0.48965420     0.25700
C289        C  0.22176498  0.56730025  0.50008208    -0.12000
C290        C  0.24547336  0.57860372  0.53888255    -0.26000
C291        C  0.27174778  0.55828465  0.56643728     0.36600
C292        C  0.27315955  0.52733345  0.55578738    -0.27600
F293        F  0.19714517  0.52611314  0.45352040    -0.19800
H294        H  0.20075871  0.58225063  0.47864825     0.15900
F295        F  0.29588309  0.56820027  0.60385319    -0.23500
H296        H  0.29330957  0.51210466  0.57754538     0.17700
C297        C  0.59768946  0.85756170  0.25477214    -0.27500
C298        C  0.55103048  0.86320412  0.27031867     0.06100
C299        C  0.54327462  0.86866290  0.31742478     0.25700
C300        C  0.58103478  0.86714233  0.34849832    -0.12000
C301        C  0.62747396  0.86002054  0.33349106    -0.19600
C302        C  0.63561183  0.85595870  0.28588765     0.36500
C303        C  0.51017907  0.86133155  0.23809479     0.06100
F304        F  0.49891069  0.87507141  0.33354829    -0.19700
H305        H  0.57343742  0.87057382  0.38470861     0.15900
F306        F  0.67981058  0.84951988  0.26937713    -0.23500
H307        H  0.60451897  0.85319732  0.21864284     0.17700
C308        C  0.50980992  0.87748136  0.19632139     0.25700
C309        C  0.47138356  0.87463592  0.16604856    -0.12000
C310        C  0.43254558  0.85574379  0.17686659    -0.26000
C311        C  0.43303329  0.83963923  0.21876498     0.36600
C312        C  0.47143709  0.84245246  0.24884790    -0.27600
F313        F  0.54628156  0.89627806  0.18503750    -0.19800
H314        H  0.47208128  0.88720171  0.13399123     0.15900
F315        F  0.39740928  0.82014835  0.22993879    -0.23500
H316        H  0.47140349  0.82926043  0.28033659     0.17700
C317        C  0.25758112  0.78651863  0.85957229    -0.27500
C318        C  0.29607590  0.78555357  0.82873153     0.06100
C319        C  0.34124669  0.79510273  0.84345398     0.25700
C320        C  0.34831249  0.80328735  0.88933267    -0.12000
C321        C  0.31049838  0.80199642  0.92112175    -0.26000
C322        C  0.26453444  0.79464669  0.90538082     0.36500
C323        C  0.28961860  0.77130571  0.78325184     0.06100
F324        F  0.37881910  0.79546183  0.81384677    -0.19700
H325        H  0.38390084  0.80919215  0.90040459     0.15900
F326        F  0.22654686  0.79415082  0.93451039    -0.23500
H327        H  0.22246323  0.77935646  0.84876193     0.17700
C328        C  0.31766243  0.74620626  0.77074001     0.25700
C329        C  0.30859186  0.73070067  0.73003826    -0.12000
C330        C  0.27124765  0.73970952  0.70096352    -0.26000
C331        C  0.24341960  0.76507505  0.71321866     0.36600
C332        C  0.25250177  0.78062526  0.75423364    -0.27600
F333        F  0.35235217  0.73567969  0.79899282    -0.19800
H334        H  0.33065201  0.71128876  0.72162173     0.15900
F335        F  0.20665673  0.77429582  0.68648419    -0.23500
H336        H  0.23016918  0.79968209  0.76373726     0.17700
C337        C  0.22480812  0.69764927  0.34011994    -0.27500
C338        C  0.26713124  0.71212284  0.32665367     0.06100
C339        C  0.30126795  0.71915203  0.36001383     0.25700
C340        C  0.29205508  0.71319493  0.40636364    -0.12000
C341        C  0.24872189  0.69997901  0.42041930    -0.26000
C342        C  0.21568799  0.69136431  0.38654141     0.36500
C343        C  0.27189042  0.72481467  0.27985365     0.06100
F344        F  0.34189244  0.73397322  0.34821403    -0.19700
H345        H  0.31826968  0.72009981  0.43140901     0.15900
F346        F  0.17364865  0.67822904  0.39822202    -0.23500
H347        H  0.19795724  0.69235150  0.31475673     0.17700
C348        C  0.31142982  0.71832377  0.25158302     0.25700
C349        C  0.31863284  0.73464200  0.21069770    -0.12000
C350        C  0.28682415  0.75784064  0.19802497    -0.26000
C351        C  0.24602148  0.76305167  0.22536607     0.36600
C352        C  0.23872836  0.74660717  0.26569906    -0.27600
F353        F  0.34339470  0.69671785  0.26402167    -0.19800
H354        H  0.34986436  0.72989831  0.18986006     0.15900
F355        F  0.21324359  0.78431340  0.21350860    -0.23500
H356        H  0.20808217  0.75187774  0.28708627     0.17700
C357        C  0.28463694  0.97367483  0.05406355    -0.27500
C358        C  0.30747018  0.98454408  0.01423738     0.06100
C359        C  0.33158550  0.96377933  0.98561735     0.25700
C360        C  0.33385787  0.93297268  0.99742292    -0.12000
C361        C  0.31226726  0.92211438  0.03805643    -0.26000
C362        C  0.28661782  0.94282621  0.06579389     0.36500
C363        C  0.30793011  0.01764846  0.00391814     0.06100
F364        F  0.35495520  0.97349678  0.94734894    -0.19700
H365        H  0.35390690  0.91776662  0.97535275     0.15900
F366        F  0.26375344  0.93344593  0.10453021    -0.23500
H367        H  0.26545947  0.98921376  0.07633469     0.17700
C368        C  0.29236163  0.02884106  0.96126897     0.25700
C369        C  0.29513557  0.05989835  0.95134458    -0.12000
C370        C  0.31359445  0.08059865  0.98359460    -0.26000
C371        C  0.32837559  0.06934953  0.02667731     0.36600
C372        C  0.32526795  0.03825925  0.03664748    -0.27600
F373        F  0.27403749  0.00977259  0.92929344    -0.19800
H374        H  0.28318766  0.06767239  0.91799604     0.15900
F375        F  0.34666343  0.08817489  0.05897557    -0.23500
H376        H  0.33754075  0.03011730  0.06969173     0.17700
C377        C  0.32423400  0.20527257  0.18271159    -0.27500
C378        C  0.27764505  0.21377135  0.19477354     0.06100
C379        C  0.24183684  0.21355746  0.16152142     0.25700
C380        C  0.25325990  0.20672611  0.11600784    -0.12000
C381        C  0.30056985  0.20009036  0.10300993    -0.26000
C382        C  0.33576676  0.19831179  0.13712497     0.36500
C383        C  0.26929851  0.22941961  0.23850248     0.06100
F384        F  0.19687944  0.22264300  0.17225046    -0.19700
H385        H  0.22538984  0.20823378  0.09051128     0.15900
F386        F  0.38185408  0.19230732  0.12606976    -0.23500
H387        H  0.35225950  0.20596659  0.20814827     0.17700
C388        C  0.24215086  0.21659770  0.27416417     0.25700
C389        C  0.23530829  0.23270509  0.31521246    -0.12000
C390        C  0.25499410  0.26183556  0.32056410    -0.26000
C391        C  0.28070989  0.27481360  0.28365511     0.36600
C392        C  0.28793934  0.25857150  0.24334831    -0.27600
F393        F  0.22304217  0.18852200  0.26948077    -0.19800
H394        H  0.21507124  0.22231271  0.34285820     0.15900
F395        F  0.29914404  0.30321447  0.28618090    -0.23500
H396        H  0.30802815  0.26888017  0.21547297     0.17700
C397        C  0.22868564  0.25237031  0.75829165    -0.27500
C398        C  0.26207638  0.27343042  0.74222123     0.06100
C399        C  0.30197233  0.28041582  0.76908937     0.25700
C400        C  0.30921562  0.26546598  0.81089594    -0.12000
C401        C  0.27711454  0.24310867  0.82580205    -0.26000
C402        C  0.23609352  0.23716344  0.79959213     0.36500
C403        C  0.25715997  0.28523766  0.69524296     0.06100
F404        F  0.33434401  0.30111114  0.75428796    -0.19700
H405        H  0.34078648  0.27050733  0.83068968     0.15900
F406        F  0.20339612  0.21635064  0.81343031    -0.23500
H407        H  0.19783196  0.24673633  0.73777612     0.17700
C408        C  0.29127316  0.27766286  0.66174637     0.25700
C409        C  0.28309623  0.28456324  0.61572529    -0.12000
C410        C  0.24057161  0.29890495  0.60226350    -0.26000
C411        C  0.20729248  0.30761202  0.63627298     0.36600
C412        C  0.21555959  0.30060569  0.68239425    -0.27600
F413        F  0.33093332  0.26171225  0.67312745    -0.19800
H414        H  0.30940882  0.27757178  0.59045160     0.15900
F415        F  0.16599944  0.32177986  0.62501195    -0.23500
H416        H  0.18883238  0.30631607  0.70801069     0.17700
C417        C  0.58433872  0.14503302  0.76267391    -0.27500
C418        C  0.53987276  0.13486121  0.74743613     0.06100
C419        C  0.53499489  0.12575564  0.70131569     0.25700
C420        C  0.57372935  0.12781693  0.67082679    -0.12000
C421        C  0.61793136  0.13906324  0.68573415    -0.26000
C422        C  0.62296388  0.14708796  0.73246161     0.36500
C423        C  0.49850180  0.13613982  0.77935722     0.06100
F424        F  0.49271457  0.11517085  0.68566985    -0.19700
H425        H  0.56868416  0.12138589  0.63522274     0.15900
F426        F  0.66459721  0.15816257  0.74891322    -0.23500
H427        H  0.58876775  0.15259366  0.79786102     0.17700
C428        C  0.50181718  0.12438754  0.82423162     0.25700
C429        C  0.46529542  0.12944880  0.85618913    -0.12000
C430        C  0.42457874  0.14618035  0.84409309    -0.26000
C431        C  0.42049463  0.15699312  0.79855631     0.36600
C432        C  0.45718399  0.15198104  0.76666606    -0.27600
F433        F  0.54073461  0.10831461  0.83735490    -0.19800
H434        H  0.46925136  0.12055155  0.89072991     0.15900
F435        F  0.38217788  0.17359892  0.78524582    -0.23500
H436        H  0.45419558  0.16166821  0.73250823     0.17700
C437        C  0.02960739  0.24378039  0.05091701    -0.27500
C438        C  0.02525558  0.22191949  0.01606823     0.06100
C439        C  0.98023467  0.21663399  0.99681513     0.25700
C440        C  0.94063487  0.23355256  0.01140699    -0.12000
C441        C  0.94531730  0.25640924  0.04488450    -0.26000
C442        C  0.99025608  0.26107401  0.06497575     0.36500
C443        C  0.06867736  0.20692784  0.99750729     0.06100
F444        F  0.97476709  0.19548376  0.96333343    -0.19700
H445        H  0.90661363  0.22956680  0.99513682     0.15900
F446        F  0.99644593  0.28268925  0.09764314    -0.23500
H447        H  0.06406364  0.24833320  0.06597056     0.17700
C448        C  0.08178077  0.21099237  0.95110403     0.25700
C449        C  0.12671537  0.20175844  0.93556480    -0.12000
C450        C  0.15892849  0.18786385  0.96565583    -0.26000
C451        C  0.14482499  0.18187192  0.01119564     0.36600
C452        C  0.10009106  0.19160638  0.02708372    -0.27600
F453        F  0.05290900  0.22631878  0.92182409    -0.19800
H454        H  0.13756782  0.20716367  0.90063625     0.15900
F455        F  0.17572816  0.16892670  0.04115242    -0.23500
H456        H  0.09071725  0.18836699  0.06299106     0.17700
C457        C  0.52812456  0.26555612  0.98055252    -0.27500
C458        C  0.52309318  0.28650890  0.01665953     0.06100
C459        C  0.47759659  0.29140050  0.03572158     0.25700
C460        C  0.43838023  0.27461038  0.02019090    -0.12000
C461        C  0.44392968  0.25212272  0.98609059    -0.26000
C462        C  0.48917179  0.24834494  0.96559193     0.36500
C463        C  0.56641961  0.29987610  0.03778060     0.06100
F464        F  0.47145160  0.31165966  0.07042937    -0.19700
H465        H  0.40408958  0.27809585  0.03664076     0.15900
F466        F  0.49609945  0.22749265  0.93185947    -0.23500
H467        H  0.56291554  0.26140187  0.96548789     0.17700
C468        C  0.58150523  0.28965674  0.08117098     0.25700
C469        C  0.62682373  0.29716414  0.09744494    -0.12000
C470        C  0.65732154  0.31585041  0.07157708    -0.26000
C471        C  0.64085711  0.32810874  0.02988867     0.36600
C472        C  0.59600651  0.31972914  0.01275901    -0.27600
F473        F  0.55384252  0.27048730  0.10622468    -0.19800
H474        H  0.63901500  0.28727140  0.12940796     0.15900
F475        F  0.66962780  0.34613147  0.00405320    -0.23500
H476        H  0.58509764  0.32778537  0.97923603     0.17700
C477        C  0.00853681  0.37129852  0.20586108    -0.27500
C478        C  0.00025095  0.36476887  0.25257152     0.06100
C479        C  0.95362828  0.35749975  0.26674711     0.25700
C480        C  0.91698184  0.35508532  0.23435712    -0.12000
C481        C  0.92581419  0.35998878  0.18714244    -0.26000
C482        C  0.97200185  0.36891990  0.17346440     0.36500
C483        C  0.04098866  0.36327499  0.28527024     0.06100
F484        F  0.94393272  0.35101699  0.31150119    -0.19700
H485        H  0.88194718  0.34838520  0.24619102     0.15900
F486        F  0.98261401  0.37435665  0.12858974    -0.23500
H487        H  0.04384332  0.37755356  0.19418964     0.17700
C488        C  0.08209451  0.34648339  0.27386901     0.25700
C489        C  0.11972419  0.34398529  0.30494239    -0.12000
C490        C  0.11725062  0.35773938  0.34851960    -0.26000
C491        C  0.07626955  0.37481416  0.35992559     0.36600
C492        C  0.03871530  0.37760701  0.32847196    -0.27600
F493        F  0.08505327  0.33120418  0.23340786    -0.19800
H494        H  0.15025041  0.33028567  0.29535368     0.15900
F495        F  0.07225784  0.38872565  0.40144024    -0.23500
H496        H  0.00771783  0.39088314  0.33796266     0.17700
C497        C  0.73169894  0.24867201  0.27345329    -0.27500
C498        C  0.76835113  0.23152842  0.29323637     0.06100
C499        C  0.81154517  0.22792829  0.26882354     0.25700
C500        C  0.81822257  0.24235410  0.22614045    -0.12000
C501        C  0.78223079  0.26087411  0.20777123    -0.26000
C502        C  0.73848474  0.26327513  0.23137465     0.36500
C503        C  0.76158134  0.21959395  0.34060453     0.06100
F504        F  0.84731435  0.21081545  0.28647608    -0.19700
H505        H  0.85207195  0.24004553  0.20838410     0.15900
F506        F  0.70223088  0.28007043  0.21392788    -0.23500
H507        H  0.69817029  0.25172799  0.29153924     0.17700
C508        C  0.79307483  0.22777282  0.37580862     0.25700
C509        C  0.78298221  0.22005631  0.42146112    -0.12000
C510        C  0.74102377  0.20427742  0.43330018    -0.26000
C511        C  0.71008305  0.19541049  0.39781397     0.36600
C512        C  0.72036163  0.20307240  0.35199926    -0.27600
F513        F  0.83208860  0.24492277  0.36655857    -0.19800
H514        H  0.80756726  0.22733498  0.44775347     0.15900
F515        F  0.66918714  0.18023304  0.40728838    -0.23500
H516        H  0.69545892  0.19678070  0.32541022     0.17700
C517        C  0.74039695  0.28330403  0.76267431    -0.27500
C518        C  0.77684992  0.27477988  0.79297709     0.06100
C519        C  0.80344455  0.24844013  0.78362458     0.25700
C520        C  0.79387068  0.23104869  0.74470716    -0.12000
C521        C  0.75759973  0.23945466  0.71406437    -0.26000
C522        C  0.73097545  0.26597126  0.72331605     0.36500
C523        C  0.78412116  0.29110340  0.83689966     0.06100
F524        F  0.83746855  0.23874428  0.81325039    -0.19700
H525        H  0.81500035  0.21086517  0.73867497     0.15900
F526        F  0.69543481  0.27495170  0.69488770    -0.23500
H527        H  0.71906111  0.30326245  0.76971599     0.17700
C528        C  0.82989297  0.30021903  0.85059567     0.25700
C529        C  0.83841169  0.30819120  0.89641841    -0.12000
C530        C  0.80140133  0.30721016  0.92913779    -0.26000
C531        C  0.75461707  0.30146615  0.91401706     0.36600
C532        C  0.74623013  0.29345672  0.86828849    -0.27600
F533        F  0.86679527  0.29977457  0.82021152    -0.19800
H534        H  0.87452664  0.31326965  0.90679714     0.15900
F535        F  0.71722769  0.30202788  0.94382596    -0.23500
H536        H  0.71055357  0.28698633  0.85822192     0.17700
C537        C  0.01091651  0.62437281  0.81540444    -0.27500
C538        C  0.00651486  0.63634601  0.77082161     0.06100
C539        C  0.96278581  0.64939301  0.75782990     0.25700
C540        C  0.92513013  0.65146578  0.78944338    -0.12000
C541        C  0.93025769  0.64081362  0.83479189    -0.26000
C542        C  0.97343525  0.62664995  0.84717232     0.36500
C543        C  0.04821832  0.63666927  0.73895845     0.06100
F544        F  0.95720199  0.66173529  0.71538266    -0.19700
H545        H  0.89262682  0.66258608  0.77887324     0.15900
F546        F  0.98012219  0.61558429  0.89026670    -0.23500
H547        H  0.04377883  0.61369556  0.82593950     0.17700
C548        C  0.09281987  0.64733785  0.75373125     0.25700
C549        C  0.13083338  0.64987643  0.72263807    -0.12000
C550        C  0.12531567  0.64201888  0.67607107    -0.26000
C551        C  0.08103119  0.63040266  0.66167052     0.36600
C552        C  0.04314097  0.62769338  0.69289275    -0.27600
F553        F  0.09910347  0.65682715  0.79770860    -0.19800
H554        H  0.16423138  0.65897326  0.73485030     0.15900
F555        F  0.07365946  0.62234256  0.61720513    -0.23500
H556        H  0.00946333  0.61894478  0.68084594     0.17700
C557        C  0.04387528  0.74851201  0.98238986    -0.27500
C558        C  0.03791211  0.77827576  0.99841347     0.06100
C559        C  0.99286184  0.79195512  0.99587076     0.25700
C560        C  0.95370386  0.77524264  0.98016042    -0.12000
C561        C  0.95901820  0.74469629  0.96657120    -0.26000
C562        C  0.00509116  0.73185853  0.96641887     0.36500
C563        C  0.07796598  0.79299717  0.02243965     0.06100
F564        F  0.98622771  0.82075284  0.01114821    -0.19700
H565        H  0.91888113  0.78582181  0.98053388     0.15900
F566        F  0.01253488  0.70262542  0.95351074    -0.23500
H567        H  0.07849810  0.73770437  0.98409047     0.17700
C568        C  0.09326243  0.78097516  0.06458825     0.25700
C569        C  0.13627180  0.79032617  0.08360343    -0.12000
C570        C  0.16464105  0.81200111  0.06118182    -0.26000
C571        C  0.14779592  0.82573376  0.02068959     0.36600
C572        C  0.10454813  0.81619978  0.00138512    -0.27600
F573        F  0.06790420  0.75878646  0.08589524    -0.19800
H574        H  0.14890411  0.77929122  0.11455465     0.15900
F575        F  0.17522485  0.84603915  0.99755608    -0.23500
H576        H  0.09335696  0.82549545  0.96868716     0.17700
C577        C  0.59454333  0.72078359  0.94989211    -0.27500
C578        C  0.57702512  0.70825534  0.99097701     0.06100
C579        C  0.60388953  0.68577087  0.01356879     0.25700
C580        C  0.64867034  0.67710246  0.99607020    -0.12000
C581        C  0.66712743  0.69112722  0.95639014    -0.26000
C582        C  0.63921390  0.71254795  0.93293224     0.36500
C583        C  0.53210304  0.72062305  0.01037583     0.06100
F584        F  0.58735303  0.67281656  0.05289900    -0.19700
H585        H  0.67004458  0.66085225  0.01491906     0.15900
F586        F  0.65615858  0.72650160  0.89451889    -0.23500
H587        H  0.57444036  0.73814577  0.93199707     0.17700
C588        C  0.53167492  0.73621282  0.05265963     0.25700
C589        C  0.49173060  0.75340552  0.06578324    -0.12000
C590        C  0.45142684  0.75467209  0.03743886    -0.26000
C591        C  0.45116356  0.73787467  0.99628432     0.36600
C592        C  0.49123065  0.72121446  0.98287595    -0.27600
F593        F  0.57092050  0.73645551  0.07970979    -0.19800
H594        H  0.49260110  0.76622031  0.09757321     0.15900
F595        F  0.41348082  0.73937594  0.96728396    -0.23500
H596        H  0.49116077  0.70974723  0.94989823     0.17700
C597        C  0.81777107  0.46415182  0.98962488    -0.27500
C598        C  0.80779777  0.48647936  0.02269137     0.06100
C599        C  0.79743573  0.47750722  0.06809880     0.25700
C600        C  0.79836949  0.44676115  0.08029934    -0.12000
C601        C  0.80990089  0.42436319  0.04755148    -0.26000
C602        C  0.81906856  0.43345413  0.00176653     0.36500
C603        C  0.80940136  0.51900940  0.00956773     0.06100
F604        F  0.78623511  0.49848173  0.10061353    -0.19700
H605        H  0.79100782  0.44056818  0.11569773     0.15900
F606        F  0.83002650  0.41282100  0.96867474    -0.23500
H607        H  0.82579421  0.47059742  0.95444511     0.17700
C608        C  0.83912125  0.53938969  0.03296289     0.25700
C609        C  0.84171799  0.56977106  0.01922490    -0.12000
C610        C  0.81526654  0.58040922  0.98151763    -0.26000
C611        C  0.78538054  0.55994209  0.95819590     0.36600
C612        C  0.78262717  0.52958047  0.97216019    -0.27600
F613        F  0.86723896  0.52963041  0.06784377    -0.19800
H614        H  0.86561983  0.58479175  0.03735661     0.15900
F615        F  0.75875179  0.56917564  0.92192990    -0.23500
H616        H  0.75957024  0.51421395  0.95365839     0.17700
C617        C  0.79971221  0.78083503  0.75861961    -0.27500
C618        C  0.76244236  0.77092224  0.73030061     0.06100
C619        C  0.73535594  0.74570487  0.74394390     0.25700
C620        C  0.74601211  0.73039127  0.78461682    -0.12000
C621        C  0.78389082  0.73978966  0.81270643    -0.26000
C622        C  0.81021705  0.76559917  0.79970014     0.36500
C623        C  0.75535369  0.78442348  0.68417478     0.06100
F624        F  0.70021636  0.73479172  0.71668335    -0.19700
H625        H  0.72482835  0.71076933  0.79373147     0.15900
F626        F  0.84694488  0.77557232  0.82574853    -0.23500
H627        H  0.82122550  0.80008852  0.74841870     0.17700
C628        C  0.71004582  0.79377561  0.66922307     0.25700
C629        C  0.70278494  0.80156025  0.62306115    -0.12000
C630        C  0.74052780  0.79998414  0.59117130    -0.26000
C631        C  0.78649983  0.79259095  0.60704321     0.36600
C632        C  0.79365366  0.78494762  0.65307080    -0.27600
F633        F  0.67260788  0.79456108  0.69896583    -0.19800
H634        H  0.66725092  0.80751726  0.61193059     0.15900
F635        F  0.82446766  0.79180780  0.57789240    -0.23500
H636        H  0.82881555  0.77792720  0.66392739     0.17700
C637        C  0.84705435  0.70578342  0.17095441    -0.27500
C638        C  0.80109746  0.71363464  0.18637198     0.06100
C639        C  0.76333816  0.71358835  0.15482790     0.25700
C640        C  0.77199018  0.70741259  0.10846269    -0.12000
C641        C  0.81837095  0.70129351  0.09249528    -0.26000
C642        C  0.85576382  0.69963289  0.12445507     0.36500
C643        C  0.79423941  0.72673918  0.23286578     0.06100
F644        F  0.71871386  0.72190468  0.16795211    -0.19700
H645        H  0.74246674  0.70852699  0.08469782     0.15900
F646        F  0.90115288  0.69394814  0.11055409    -0.23500
H647        H  0.87665237  0.70577291  0.19467590     0.17700
C648        C  0.75591966  0.71826276  0.26154252     0.25700
C649        C  0.74590468  0.73478448  0.30163920    -0.12000
C650        C  0.77408462  0.75982844  0.31374570    -0.26000
C651        C  0.81436865  0.76679697  0.28660135     0.36600
C652        C  0.82403772  0.75048805  0.24662650    -0.27600
F653        F  0.72791678  0.69431452  0.25050314    -0.19800
H654        H  0.71546449  0.72844966  0.32256987     0.15900
F655        F  0.84440296  0.78959970  0.29826407    -0.23500
H656        H  0.85391527  0.75734001  0.22529210     0.17700
loop_ 
_geom_bond_atom_site_label_1 
_geom_bond_atom_site_label_2 
_geom_bond_distance 
_geom_bond_site_symmetry_2 
_ccdc_geom_bond_type 
O1          Cr19   2.008       .  S
O1            C9   1.268       .  A
O2          Cr19   1.975       .  S
O2            C3   1.258       .  A
C3            O4   1.264       .  A
C3          C561   1.489       .  S
O4          Cr20   2.011       .  S
O5          Cr20   1.986       .  S
O5            C6   1.264       .  A
C6            O7   1.267       .  A
C6          C621   1.484       .  S
O7          Cr21   2.006       .  S
O8          Cr21   1.982       .  S
O8            C9   1.265       .  A
C9          C541   1.487       .  S
O10         Cr19   1.977       .  S
O10          C18   1.258       .  A
O11         Cr19   2.011   1_554  S
O11          C12   1.268       .  A
C12          O13   1.260       .  A
C12         C641   1.478       .  S
O13         Cr20   1.967   1_554  S
O14         Cr20   1.998       .  S
O14          C15   1.264       .  A
C15          O16   1.265       .  A
C15         C581   1.472       .  S
O16         Cr21   1.999       .  S
O17         Cr21   2.008       .  S
O17          C18   1.263       .  A
C18         C610   1.485       .  S
Cr19         O22   1.769       .  S
Cr20         O22   1.769       .  S
Cr21         O22   1.769       .  S
O23         Cr41   2.018       .  S
O23          C31   1.271       .  A
O24         Cr41   1.978       .  S
O24          C25   1.257       .  A
C25          O26   1.264       .  A
C25         C441   1.486       .  S
O26         Cr42   2.015       .  S
O27         Cr42   1.990       .  S
O27          C28   1.264       .  A
C28          O29   1.269       .  A
C28         C501   1.479       .  S
O29         Cr43   2.009       .  S
O30         Cr43   1.983       .  S
O30          C31   1.264       .  A
C31         C481   1.494       .  S
O32         Cr41   1.972       .  S
O32          C40   1.256       .  A
O33         Cr41   2.021   1_556  S
O33          C34   1.271       .  A
C34          O35   1.261   1_556  A
C34         C530   1.482       .  S
O35         Cr42   1.968       .  S
O36         Cr42   2.009       .  S
O36          C37   1.265       .  A
C37          O38   1.265       .  A
C37         C470   1.480       .  S
O38         Cr43   2.005       .  S
O39         Cr43   2.013       .  S
O39          C40   1.265       .  A
C40         C601   1.488       .  S
Cr41         O44   1.768       .  S
Cr42         O44   1.769       .  S
Cr43         O44   1.769       .  S
O45         Cr63   2.015       .  S
O45          C53   1.272       .  A
O46         Cr63   1.992       .  S
O46          C47   1.260       .  A
C47          O48   1.263       .  A
C47         C461   1.494       .  S
O48         Cr64   2.014       .  S
O49         Cr64   1.979       .  S
O49          C50   1.262       .  A
C50          O51   1.265       .  A
C50         C401   1.471       .  S
O51         Cr65   1.999       .  S
O52         Cr65   1.971       .  S
O52          C53   1.263       .  A
C53         C430   1.483       .  S
O54         Cr63   1.991       .  S
O54          C62   1.260       .  A
O55         Cr63   2.018   1_554  S
O55          C56   1.271       .  A
C56          O57   1.257       .  A
C56         C381   1.474       .  S
O57         Cr64   1.949   1_554  S
O58         Cr64   2.004       .  S
O58          C59   1.265       .  A
C59          O60   1.264       .  A
C59         C450   1.468       .  S
O60         Cr65   1.996       .  S
O61         Cr65   2.001       .  S
O61          C62   1.261       .  A
C62         C370   1.493       .  S
Cr63         O66   1.769       .  S
Cr64         O66   1.770       .  S
Cr65         O66   1.770       .  S
O67         Cr85   2.010       .  S
O67          C75   1.268       .  A
O68         Cr85   1.988       .  S
O68          C69   1.258       .  A
C69          O70   1.261       .  A
C69         C590   1.477       .  S
O70         Cr86   2.001       .  S
O71         Cr86   1.981       .  S
O71          C72   1.262       .  A
C72          O73   1.269       .  A
C72         C350   1.478       .  S
O73         Cr87   2.010       .  S
O74         Cr87   1.981       .  S
O74          C75   1.264       .  A
C75         C310   1.485       .  S
O76         Cr85   1.984       .  S
O76          C84   1.260       .  A
O77         Cr85   2.016   1_556  S
O77          C78   1.271       .  A
C78          O79   1.259       .  A
C78         C321   1.476       .  S
O79         Cr86   1.959   1_556  S
O80         Cr86   1.997       .  S
O80          C81   1.263       .  A
C81          O82   1.264       .  A
C81         C570   1.473       .  S
O82         Cr87   2.003       .  S
O83         Cr87   2.011       .  S
O83          C84   1.265       .  A
C84         C361   1.493       .  S
Cr85         O88   1.769       .  S
Cr86         O88   1.767       .  S
Cr87         O88   1.765       .  S
O89        Cr107   2.016       .  S
O89          C97   1.270       .  A
O90        Cr107   1.986       .  S
O90          C91   1.260       .  A
C91          O92   1.261       .  A
C91         C261   1.483       .  S
O92        Cr108   1.999       .  S
O93        Cr108   1.981       .  S
O93          C94   1.262       .  A
C94          O95   1.265       .  A
C94         C390   1.476       .  S
O95        Cr109   1.993       .  S
O96        Cr109   1.982       .  S
O96          C97   1.266       .  A
C97         C490   1.489       .  S
O98        Cr107   1.989       .  S
O98         C106   1.259       .  A
O99        Cr107   2.009       .  S
O99         C100   1.269       .  A
C100        O101   1.260       .  A
C100        C410   1.476       .  S
O101       Cr108   1.958       .  S
O102       Cr108   2.000       .  S
O102        C103   1.262       .  A
C103        O104   1.265       .  A
C103        C241   1.471       .  S
O104       Cr109   2.003       .  S
O105       Cr109   1.992       .  S
O105        C106   1.260       .  A
C106        C281   1.486       .  S
Cr107       O110   1.767       .  S
Cr108       O110   1.770       .  S
Cr109       O110   1.764       .  S
O111       Cr129   2.012       .  S
O111        C119   1.270       .  A
O112       Cr129   1.975       .  S
O112        C113   1.258       .  A
C113        O114   1.264       .  A
C113        C230   1.490       .  S
O114       Cr130   2.012       .  S
O115       Cr130   1.985       .  S
O115        C116   1.262       .  A
C116        O117   1.264       .  A
C116        C330   1.478       .  S
O117       Cr131   1.997       .  S
O118       Cr131   1.980       .  S
O118        C119   1.266       .  A
C119        C550   1.488       .  S
O120       Cr129   1.981       .  S
O120        C128   1.258       .  A
O121       Cr129   2.013       .  S
O121        C122   1.269       .  A
C122        O123   1.259       .  A
C122        C341   1.483       .  S
O123       Cr130   1.964       .  S
O124       Cr130   2.003       .  S
O124        C125   1.266       .  A
C125        O126   1.264       .  A
C125        C210   1.466       .  S
O126       Cr131   1.991       .  S
O127       Cr131   1.999       .  S
O127        C128   1.261       .  A
C128        C290   1.483       .  S
Cr129       O132   1.767       .  S
Cr130       O132   1.771       .  S
Cr131       O132   1.771       .  S
O133       Cr151   2.021       .  S
O133        C141   1.272       .  A
O134       Cr151   1.983       .  S
O134        C135   1.258       .  A
C135        O136   1.263       .  A
C135        C250   1.490       .  S
O136       Cr152   2.006       .  S
O137       Cr152   1.978       .  S
O137        C138   1.259       .  A
C138        O139   1.268       .  A
C138        C521   1.485       .  S
O139       Cr153   2.016       .  S
O140       Cr153   1.966       .  S
O140        C141   1.263       .  A
C141        C421   1.487       .  S
O142       Cr151   1.989       .  S
O142        C150   1.260       .  A
O143       Cr151   2.027       .  S
O143        C144   1.272       .  A
C144        O145   1.259       .  A
C144        C510   1.488       .  S
O145       Cr152   1.959       .  S
O146       Cr152   2.007       .  S
O146        C147   1.266       .  A
C147        O148   1.264       .  A
C147        C270   1.470       .  S
O148       Cr153   1.992       .  S
O149       Cr153   2.010       .  S
O149        C150   1.263       .  A
C150        C181   1.494       .  S
Cr151       O154   1.771       .  S
Cr152       O154   1.768       .  S
Cr153       O154   1.769       .  S
O155       Cr173   2.012       .  S
O155        C163   1.270       .  A
O156       Cr173   1.982       .  S
O156        C157   1.258       .  A
C157        O158   1.262       .  A
C157        C201   1.488       .  S
O158       Cr174   2.002       .  S
O159       Cr174   1.979       .  S
O159        C160   1.262       .  A
C160        O161   1.268       .  A
C160        C650   1.479       .  S
O161       Cr175   2.008       .  S
O162       Cr175   1.982       .  S
O162        C163   1.264       .  A
C163        C301   1.490       .  S
O164       Cr173   1.980       .  S
O164        C172   1.259       .  A
O165       Cr173   2.021       .  S
O165        C166   1.271       .  A
C166        O167   1.259       .  A
C166        C630   1.480       .  S
O167       Cr174   1.959       .  S
O168       Cr174   1.994       .  S
O168        C169   1.263       .  A
C169        O170   1.265       .  A
C169        C221   1.475       .  S
O170       Cr175   2.004       .  S
O171       Cr175   2.012       .  S
O171        C172   1.264       .  A
C172        C190   1.492       .  S
Cr173       O176   1.770       .  S
Cr174       O176   1.769       .  S
Cr175       O176   1.771       .  S
C177        C178   1.406       .  A
C177        C182   1.401       .  A
C177        H187   1.083       .  S
C178        C183   1.497   1_545  S
C178        C179   1.410       .  A
C179        C180   1.404       .  A
C179        F184   1.357       .  S
C180        C181   1.408       .  A
C180        H185   1.082       .  S
C181        C182   1.411       .  A
C182        F186   1.357       .  S
C183        C188   1.409       .  A
C183        C192   1.407       .  A
C188        C189   1.404       .  A
C188        F193   1.357       .  S
C189        C190   1.408       .  A
C189        H194   1.082       .  S
C190        C191   1.410       .  A
C191        C192   1.400       .  A
C191        F195   1.357       .  S
C192        H196   1.082       .  S
C197        C198   1.401       .  A
C197        C202   1.400       .  A
C197        H207   1.084       .  S
C198        C203   1.482       .  S
C198        C199   1.407       .  A
C199        C200   1.399       .  A
C199        F204   1.358       .  S
C200        C201   1.407       .  A
C200        H205   1.083       .  S
C201        C202   1.413       .  A
C202        F206   1.357       .  S
C203        C208   1.406       .  A
C203        C212   1.406       .  A
C208        C209   1.398       .  A
C208        F213   1.357       .  S
C209        C210   1.402       .  A
C209        H214   1.083       .  S
C210        C211   1.402       .  A
C211        C212   1.400       .  A
C211        F215   1.357       .  S
C212        H216   1.083       .  S
C217        C218   1.400       .  A
C217        C222   1.393       .  A
C217        H227   1.083       .  S
C218        C223   1.479   1_655  S
C218        C219   1.407       .  A
C219        C220   1.407       .  A
C219        F224   1.357       .  S
C220        C221   1.405       .  A
C220        H225   1.083       .  S
C221        C222   1.407       .  A
C222        F226   1.358       .  S
C223        C228   1.404       .  A
C223        C232   1.401       .  A
C228        C229   1.397       .  A
C228        F233   1.358   1_455  S
C229        C230   1.408       .  A
C229        H234   1.083       .  S
C230        C231   1.413       .  A
C231        C232   1.404       .  A
C231        F235   1.357       .  S
C232        H236   1.083       .  S
C237        C238   1.404       .  A
C237        C242   1.399       .  A
C237        H247   1.083       .  S
C238        C243   1.481       .  S
C238        C239   1.405       .  A
C239        C240   1.403       .  A
C239        F244   1.357       .  S
C240        C241   1.405       .  A
C240        H245   1.083       .  S
C241        C242   1.403       .  A
C242        F246   1.357       .  S
C243        C248   1.406       .  A
C243        C252   1.401       .  A
C248        C249   1.402       .  A
C248        F253   1.358       .  S
C249        C250   1.409       .  A
C249        H254   1.084       .  S
C250        C251   1.411       .  A
C251        C252   1.399       .  A
C251        F255   1.357       .  S
C252        H256   1.084       .  S
C257        C258   1.401       .  A
C257        C262   1.399       .  A
C257        H267   1.083       .  S
C258        C263   1.477   1_455  S
C258        C259   1.405       .  A
C259        C260   1.400       .  A
C259        F264   1.357   1_455  S
C260        C261   1.405       .  A
C260        H265   1.083       .  S
C261        C262   1.412       .  A
C262        F266   1.358       .  S
C263        C268   1.406       .  A
C263        C272   1.402       .  A
C268        C269   1.402       .  A
C268        F273   1.357       .  S
C269        C270   1.404       .  A
C269        H274   1.084       .  S
C270        C271   1.404       .  A
C271        C272   1.397       .  A
C271        F275   1.358       .  S
C272        H276   1.084       .  S
C277        C278   1.406       .  A
C277        C282   1.402       .  A
C277        H287   1.083       .  S
C278        C283   1.484       .  S
C278        C279   1.404       .  A
C279        C280   1.395       .  A
C279        F284   1.358       .  S
C280        C281   1.408       .  A
C280        H285   1.083       .  S
C281        C282   1.410       .  A
C282        F286   1.357       .  S
C283        C288   1.408       .  A
C283        C292   1.403       .  A
C288        C289   1.398       .  A
C288        F293   1.358       .  S
C289        C290   1.405       .  A
C289        H294   1.083       .  S
C290        C291   1.411       .  A
C291        C292   1.399       .  A
C291        F295   1.358       .  S
C292        H296   1.083       .  S
C297        C298   1.405       .  A
C297        C302   1.403       .  A
C297        H307   1.083       .  S
C298        C303   1.487       .  S
C298        C299   1.406       .  A
C299        C300   1.398       .  A
C299        F304   1.358       .  S
C300        C301   1.407       .  A
C300        H305   1.083       .  S
C301        C302   1.412       .  A
C302        F306   1.357       .  S
C303        C308   1.407       .  A
C303        C312   1.405       .  A
C308        C309   1.402       .  A
C308        F313   1.357       .  S
C309        C310   1.408       .  A
C309        H314   1.083       .  S
C310        C311   1.409       .  A
C311        C312   1.398       .  A
C311        F315   1.358       .  S
C312        H316   1.084       .  S
C317        C318   1.401       .  A
C317        C322   1.394       .  A
C317        H327   1.084       .  S
C318        C323   1.476       .  S
C318        C319   1.406       .  A
C319        C320   1.397       .  A
C319        F324   1.358       .  S
C320        C321   1.404       .  A
C320        H325   1.084       .  S
C321        C322   1.410       .  A
C322        F326   1.358       .  S
C323        C328   1.403       .  A
C323        C332   1.405       .  A
C328        C329   1.391       .  A
C328        F333   1.358       .  S
C329        C330   1.407       .  A
C329        H334   1.082       .  S
C330        C331   1.407       .  A
C331        C332   1.400       .  A
C331        F335   1.357       .  S
C332        H336   1.082       .  S
C337        C338   1.404       .  A
C337        C342   1.399       .  A
C337        H347   1.083       .  S
C338        C343   1.476       .  S
C338        C339   1.402       .  A
C339        C340   1.395       .  A
C339        F344   1.358       .  S
C340        C341   1.408       .  A
C340        H345   1.082       .  S
C341        C342   1.409       .  A
C342        F346   1.357       .  S
C343        C348   1.406       .  A
C343        C352   1.400       .  A
C348        C349   1.402       .  A
C348        F353   1.357       .  S
C349        C350   1.406       .  A
C349        H354   1.083       .  S
C350        C351   1.409       .  A
C351        C352   1.392       .  A
C351        F355   1.358       .  S
C352        H356   1.083       .  S
C357        C358   1.404       .  A
C357        C362   1.403       .  A
C357        H367   1.083       .  S
C358        C363   1.489   1_565  S
C358        C359   1.407   1_554  A
C359        C360   1.402       .  A
C359        F364   1.357       .  S
C360        C361   1.408   1_556  A
C360        H365   1.083       .  S
C361        C362   1.412       .  A
C362        F366   1.357       .  S
C363        C368   1.405   1_554  A
C363        C372   1.405       .  A
C368        C369   1.401       .  A
C368        F373   1.358       .  S
C369        C370   1.410       .  A
C369        H374   1.082       .  S
C370        C371   1.411   1_556  A
C371        C372   1.403       .  A
C371        F375   1.357       .  S
C372        H376   1.083       .  S
C377        C378   1.403       .  A
C377        C382   1.396       .  A
C377        H387   1.083       .  S
C378        C383   1.464       .  S
C378        C379   1.399       .  A
C379        C380   1.392       .  A
C379        F384   1.358       .  S
C380        C381   1.409       .  A
C380        H385   1.083       .  S
C381        C382   1.406       .  A
C382        F386   1.357       .  S
C383        C388   1.402       .  A
C383        C392   1.396       .  A
C388        C389   1.401       .  A
C388        F393   1.357       .  S
C389        C390   1.408       .  A
C389        H394   1.083       .  S
C390        C391   1.411       .  A
C391        C392   1.387       .  A
C391        F395   1.358       .  S
C392        H396   1.084       .  S
C397        C398   1.399       .  A
C397        C402   1.391       .  A
C397        H407   1.084       .  S
C398        C403   1.468       .  S
C398        C399   1.404       .  A
C399        C400   1.397       .  A
C399        F404   1.357       .  S
C400        C401   1.404       .  A
C400        H405   1.083       .  S
C401        C402   1.410       .  A
C402        F406   1.358       .  S
C403        C408   1.402       .  A
C403        C412   1.401       .  A
C408        C409   1.391       .  A
C408        F413   1.358       .  S
C409        C410   1.407       .  A
C409        H414   1.083       .  S
C410        C411   1.409       .  A
C411        C412   1.396       .  A
C411        F415   1.357       .  S
C412        H416   1.083       .  S
C417        C418   1.402       .  A
C417        C422   1.394       .  A
C417        H427   1.084       .  S
C418        C423   1.483       .  S
C418        C419   1.407       .  A
C419        C420   1.402       .  A
C419        F424   1.357       .  S
C420        C421   1.408       .  A
C420        H425   1.083       .  S
C421        C422   1.411       .  A
C422        F426   1.357       .  S
C423        C428   1.406       .  A
C423        C432   1.404       .  A
C428        C429   1.397       .  A
C428        F433   1.357       .  S
C429        C430   1.405       .  A
C429        H434   1.084       .  S
C430        C431   1.411       .  A
C431        C432   1.399       .  A
C431        F435   1.358       .  S
C432        H436   1.084       .  S
C437        C438   1.404       .  A
C437        C442   1.400   1_455  A
C437        H447   1.083       .  S
C438        C443   1.484   1_554  S
C438        C439   1.405   1_454  A
C439        C440   1.401   1_556  A
C439        F444   1.357       .  S
C440        C441   1.408       .  A
C440        H445   1.083   1_554  S
C441        C442   1.409       .  A
C442        F446   1.357       .  S
C443        C448   1.407       .  A
C443        C452   1.406   1_556  A
C448        C449   1.397       .  A
C448        F453   1.357       .  S
C449        C450   1.401       .  A
C449        H454   1.084       .  S
C450        C451   1.404   1_556  A
C451        C452   1.402       .  A
C451        F455   1.357       .  S
C452        H456   1.084       .  S
C457        C458   1.404   1_556  A
C457        C462   1.404       .  A
C457        H467   1.083       .  S
C458        C463   1.489       .  S
C458        C459   1.406       .  A
C459        C460   1.405       .  A
C459        F464   1.357       .  S
C460        C461   1.410   1_554  A
C460        H465   1.083       .  S
C461        C462   1.409       .  A
C462        F466   1.357       .  S
C463        C468   1.406       .  A
C463        C472   1.407       .  A
C468        C469   1.401       .  A
C468        F473   1.357       .  S
C469        C470   1.404       .  A
C469        H474   1.083       .  S
C470        C471   1.406       .  A
C471        C472   1.407       .  A
C471        F475   1.357       .  S
C472        H476   1.082   1_554  S
C477        C478   1.405       .  A
C477        C482   1.401   1_455  A
C477        H487   1.082       .  S
C478        C483   1.493       .  S
C478        C479   1.408   1_455  A
C479        C480   1.403       .  A
C479        F484   1.357       .  S
C480        C481   1.409       .  A
C480        H485   1.082       .  S
C481        C482   1.411       .  A
C482        F486   1.357       .  S
C483        C488   1.408       .  A
C483        C492   1.407       .  A
C488        C489   1.398       .  A
C488        F493   1.357       .  S
C489        C490   1.406       .  A
C489        H494   1.083       .  S
C490        C491   1.412       .  A
C491        C492   1.405       .  A
C491        F495   1.358       .  S
C492        H496   1.082       .  S
C497        C498   1.401       .  A
C497        C502   1.394       .  A
C497        H507   1.084       .  S
C498        C503   1.484       .  S
C498        C499   1.410       .  A
C499        C500   1.405       .  A
C499        F504   1.358       .  S
C500        C501   1.405       .  A
C500        H505   1.083       .  S
C501        C502   1.407       .  A
C502        F506   1.358       .  S
C503        C508   1.404       .  A
C503        C512   1.407       .  A
C508        C509   1.397       .  A
C508        F513   1.358       .  S
C509        C510   1.410       .  A
C509        H514   1.082       .  S
C510        C511   1.408       .  A
C511        C512   1.402       .  A
C511        F515   1.357       .  S
C512        H516   1.082       .  S
C517        C518   1.404       .  A
C517        C522   1.403       .  A
C517        H527   1.082       .  S
C518        C523   1.481       .  S
C518        C519   1.405       .  A
C519        C520   1.394       .  A
C519        F524   1.358       .  S
C520        C521   1.406       .  A
C520        H525   1.082       .  S
C521        C522   1.411       .  A
C522        F526   1.357       .  S
C523        C528   1.407       .  A
C523        C532   1.401       .  A
C528        C529   1.399       .  A
C528        F533   1.357       .  S
C529        C530   1.405       .  A
C529        H534   1.084       .  S
C530        C531   1.411       .  A
C531        C532   1.397       .  A
C531        F535   1.357       .  S
C532        H536   1.084       .  S
C537        C538   1.404       .  A
C537        C542   1.399   1_455  A
C537        H547   1.081       .  S
C538        C543   1.489       .  S
C538        C539   1.408   1_455  A
C539        C540   1.399       .  A
C539        F544   1.357       .  S
C540        C541   1.407       .  A
C540        H545   1.081       .  S
C541        C542   1.411       .  A
C542        F546   1.357       .  S
C543        C548   1.408       .  A
C543        C552   1.404       .  A
C548        C549   1.399       .  A
C548        F553   1.357       .  S
C549        C550   1.406       .  A
C549        H554   1.083       .  S
C550        C551   1.412       .  A
C551        C552   1.399       .  A
C551        F555   1.357       .  S
C552        H556   1.082       .  S
C557        C558   1.402       .  A
C557        C562   1.396       .  A
C557        H567   1.083       .  S
C558        C563   1.479   1_556  S
C558        C559   1.402   1_455  A
C559        C560   1.404       .  A
C559        F564   1.357   1_556  S
C560        C561   1.411       .  A
C560        H565   1.082       .  S
C561        C562   1.411   1_655  A
C562        F566   1.358       .  S
C563        C568   1.403       .  A
C563        C572   1.405       .  A
C568        C569   1.394       .  A
C568        F573   1.358       .  S
C569        C570   1.403       .  A
C569        H574   1.083       .  S
C570        C571   1.407       .  A
C571        C572   1.406       .  A
C571        F575   1.357   1_554  S
C572        H576   1.082   1_554  S
C577        C578   1.402       .  A
C577        C582   1.392       .  A
C577        H587   1.084       .  S
C578        C583   1.482   1_556  S
C578        C579   1.408   1_556  A
C579        C580   1.406   1_554  A
C579        F584   1.357       .  S
C580        C581   1.405       .  A
C580        H585   1.084   1_556  S
C581        C582   1.404       .  A
C582        F586   1.358       .  S
C583        C588   1.408       .  A
C583        C592   1.402   1_554  A
C588        C589   1.403       .  A
C588        F593   1.357       .  S
C589        C590   1.405       .  A
C589        H594   1.083       .  S
C590        C591   1.407   1_554  A
C591        C592   1.396       .  A
C591        F595   1.358       .  S
C592        H596   1.084       .  S
C597        C598   1.402   1_556  A
C597        C602   1.398   1_556  A
C597        H607   1.083       .  S
C598        C603   1.484       .  S
C598        C599   1.406       .  A
C599        C600   1.401       .  A
C599        F604   1.357       .  S
C600        C601   1.408       .  A
C600        H605   1.083       .  S
C601        C602   1.412       .  A
C602        F606   1.358   1_554  S
C603        C608   1.406       .  A
C603        C612   1.404   1_554  A
C608        C609   1.399       .  A
C608        F613   1.358       .  S
C609        C610   1.407   1_554  A
C609        H614   1.083       .  S
C610        C611   1.410       .  A
C611        C612   1.400       .  A
C611        F615   1.357       .  S
C612        H616   1.083       .  S
C617        C618   1.406       .  A
C617        C622   1.402       .  A
C617        H627   1.083       .  S
C618        C623   1.480       .  S
C618        C619   1.404       .  A
C619        C620   1.394       .  A
C619        F624   1.358       .  S
C620        C621   1.408       .  A
C620        H625   1.083       .  S
C621        C622   1.408       .  A
C622        F626   1.357       .  S
C623        C628   1.407       .  A
C623        C632   1.401       .  A
C628        C629   1.400       .  A
C628        F633   1.357       .  S
C629        C630   1.405       .  A
C629        H634   1.082       .  S
C630        C631   1.411       .  A
C631        C632   1.395       .  A
C631        F635   1.358       .  S
C632        H636   1.083       .  S
C637        C638   1.406       .  A
C637        C642   1.398       .  A
C637        H647   1.083       .  S
C638        C643   1.481       .  S
C638        C639   1.406       .  A
C639        C640   1.394       .  A
C639        F644   1.357       .  S
C640        C641   1.406       .  A
C640        H645   1.083       .  S
C641        C642   1.408       .  A
C642        F646   1.358       .  S
C643        C648   1.408       .  A
C643        C652   1.401       .  A
C648        C649   1.401       .  A
C648        F653   1.357       .  S
C649        C650   1.406       .  A
C649        H654   1.083       .  S
C650        C651   1.409       .  A
C651        C652   1.391       .  A
C651        F655   1.358       .  S
C652        H656   1.084       .  S
