geometry optimzed in LAMMPS
_audit_creation_date              2020-12-01 
_audit_creation_method            'lammps2cif' 
_symmetry_space_group_name_H-M    'P1' 
_symmetry_Int_Tables_number       1 
_symmetry_cell_setting            triclinic 
loop_ 
_symmetry_equiv_pos_as_xyz 
  x,y,z 
_cell_length_a                    42.46838202 
_cell_length_b                    22.571591706107693 
_cell_length_c                    87.54526175534329 
_cell_angle_alpha                 89.54767325600444 
_cell_angle_beta                  89.28867460859772 
_cell_angle_gamma                 89.77902087369189 
loop_ 
_atom_site_label 
_atom_site_type_symbol 
_atom_site_fract_x 
_atom_site_fract_y 
_atom_site_fract_z 
_atom_site_charge 
O1          O  0.72813601  0.40968051  0.20392218    -0.73700
O2          O  0.73104163  0.43079992  0.15779138    -0.74700
O3          O  0.77438820  0.39613377  0.18069826    -0.63300
O4          O  0.68559451  0.95360606  0.18203804    -0.71700
O5          O  0.69830588  0.04862368  0.18406312    -0.71300
O6          O  0.79000877  0.99953059  0.18332858    -0.62500
O7          O  0.74549139  0.03716745  0.16124829    -0.75000
O8          O  0.74303575  0.01646489  0.20619288    -0.73800
Cu9        Cu  0.72915704  0.41562244  0.18077764     1.04600
Cu10       Cu  0.74480456  0.02868297  0.18378663     1.04300
C11         C  0.73317280  0.45526694  0.21216091     0.92500
C12         C  0.73765189  0.99523759  0.15246375     0.91600
C13         C  0.79571294  0.43501733  0.18220550     0.83800
C14         C  0.67761217  0.00762945  0.18343370     0.90100
O15         O  0.69690030  0.03109451  0.30963241    -0.73700
O16         O  0.78358281  0.47524639  0.30750242    -0.74700
O17         O  0.73766409  0.49844731  0.28532059    -0.63300
O18         O  0.73899116  0.49022115  0.33155826    -0.71700
O19         O  0.72583146  0.39562509  0.33028404    -0.71300
O20         O  0.72532444  0.40303340  0.28509227    -0.62500
O21         O  0.77187795  0.37942995  0.30714197    -0.75000
O22         O  0.67938733  0.42424075  0.30832828    -0.73800
Cu23       Cu  0.73884058  0.49888843  0.30843754     1.04600
Cu24       Cu  0.72507389  0.39724558  0.30769837     1.04300
C25         C  0.67211186  0.47936284  0.30877088     0.92500
C26         C  0.79217899  0.42127506  0.30692917     0.91600
C27         C  0.73186309  0.45091404  0.27797965     0.83800
C28         C  0.73300484  0.44063086  0.33818709     0.90100
O29         O  0.02352164  0.24784209  0.18258657    -0.73700
O30         O  0.93098092  0.29262881  0.18415989    -0.74700
O31         O  0.97454470  0.25766411  0.16114884    -0.63300
O32         O  0.97933652  0.27653189  0.20597164    -0.71700
O33         O  0.99100350  0.37178054  0.20333885    -0.71300
O34         O  0.98765783  0.35111284  0.15709344    -0.62500
O35         O  0.94489909  0.38643312  0.18059604    -0.75000
O36         O  0.03457039  0.34318362  0.17963956    -0.73800
Cu37       Cu  0.97664490  0.26537556  0.18358795     1.04600
Cu38       Cu  0.98997544  0.36643476  0.18005561     1.04300
C39         C  0.04363401  0.28965881  0.18089020     0.92500
C40         C  0.92366677  0.34745468  0.18247110     0.91600
C41         C  0.98054724  0.29997579  0.15187488     0.83800
C42         C  0.98540791  0.32644746  0.21188919     0.90100
O43         O  0.99309931  0.41066747  0.32832689    -0.73700
O44         O  0.99178095  0.38569598  0.28366682    -0.74700
O45         O  0.94616248  0.41969483  0.30587332    -0.63300
O46         O  0.03825369  0.37098954  0.30639037    -0.71700
O47         O  0.02322621  0.27810060  0.31042290    -0.71300
O48         O  0.93382794  0.32520417  0.30967028    -0.62500
O49         O  0.97859310  0.29134677  0.28680802    -0.75000
O50         O  0.97932725  0.31739883  0.33282071    -0.73800
Cu51       Cu  0.99285322  0.40001048  0.30591961     1.04600
Cu52       Cu  0.97826015  0.29971384  0.31004871     1.04300
C53         C  0.98600133  0.36928295  0.33768263     0.92500
C54         C  0.98524408  0.33549080  0.27802880     0.91600
C55         C  0.92554807  0.37906716  0.30803800     0.83800
C56         C  0.04496479  0.31615085  0.30861845     0.90100
O57         O  0.52475538  0.00471393  0.18323921    -0.73700
O58         O  0.43172681  0.04510476  0.18111085    -0.74700
O59         O  0.47905489  0.00614734  0.16004474    -0.63300
O60         O  0.47732272  0.03790350  0.20454073    -0.71700
O61         O  0.49067302  0.13160875  0.20068993    -0.71300
O62         O  0.48905978  0.10082219  0.15494482    -0.62500
O63         O  0.44517988  0.13916420  0.17744945    -0.75000
O64         O  0.53502791  0.09906723  0.17801332    -0.73800
Cu65       Cu  0.47772938  0.02011711  0.18239396     1.04600
Cu66       Cu  0.49035295  0.12092593  0.17760260     1.04300
C67         C  0.54447252  0.04658073  0.18066211     0.92500
C68         C  0.42416215  0.09964480  0.17909427     0.91600
C69         C  0.48435786  0.04766870  0.15045152     0.83800
C70         C  0.48408347  0.08863699  0.20983925     0.90100
O71         O  0.43708613  0.09287675  0.30792616    -0.73700
O72         O  0.52693911  0.05290224  0.30828886    -0.74700
O73         O  0.48314277  0.09059136  0.33097293    -0.63300
O74         O  0.48151868  0.06247201  0.28503364    -0.71700
O75         O  0.49350448  0.15698959  0.28152646    -0.71300
O76         O  0.49504116  0.18427255  0.32602281    -0.62500
O77         O  0.54070970  0.14625011  0.30415833    -0.75000
O78         O  0.44692700  0.18799364  0.30380423    -0.73800
Cu79       Cu  0.48177640  0.07151400  0.30820502     1.04600
Cu80       Cu  0.49446052  0.17226160  0.30372704     1.04300
C81         C  0.42728732  0.14558019  0.30607218     0.92500
C82         C  0.54822630  0.09167050  0.30626295     0.91600
C83         C  0.48959137  0.14290104  0.33563259     0.83800
C84         C  0.48752703  0.10627973  0.27603968     0.90100
O85         O  0.23001044  0.16788844  0.19965977    -0.73700
O86         O  0.23167723  0.19055367  0.15349169    -0.74700
O87         O  0.27521777  0.15206637  0.17600621    -0.63300
O88         O  0.18609573  0.19939650  0.17710658    -0.71700
O89         O  0.19856588  0.29416063  0.17959042    -0.71300
O90         O  0.29044091  0.24495867  0.17910427    -0.62500
O91         O  0.24643402  0.28323928  0.15710148    -0.75000
O92         O  0.24359296  0.26212306  0.20166666    -0.73800
Cu93       Cu  0.23030241  0.17414785  0.17642320     1.04600
Cu94       Cu  0.24526620  0.27437229  0.17943466     1.04300
C95         C  0.23663281  0.21276707  0.20791409     0.92500
C96         C  0.23937605  0.24157075  0.14809477     0.91600
C97         C  0.29702825  0.18976016  0.17774658     0.83800
C98         C  0.17787718  0.25324978  0.17855614     0.90100
O99         O  0.19261216  0.26704803  0.30591964    -0.73700
O100        O  0.28307584  0.22886331  0.30507941    -0.74700
O101        O  0.23859185  0.25567031  0.28251506    -0.63300
O102        O  0.23678341  0.23342336  0.32870094    -0.71700
O103        O  0.22527552  0.13888541  0.32516290    -0.71300
O104        O  0.22723535  0.16054916  0.28036849    -0.62500
O105        O  0.27319732  0.13301750  0.30240224    -0.75000
O106        O  0.17964473  0.17252310  0.30324616    -0.73800
Cu107      Cu  0.23807198  0.24957938  0.30569440     1.04600
Cu108      Cu  0.22587477  0.14790822  0.30271203     1.04300
C109        C  0.17181100  0.22721499  0.30449095     0.92500
C110        C  0.29274534  0.17598022  0.30335542     0.91600
C111        C  0.23352967  0.21037954  0.27416854     0.83800
C112        C  0.23080759  0.18157243  0.33411970     0.90100
O113        O  0.22634714  0.39812805  0.82461270    -0.73700
O114        O  0.22727310  0.41784231  0.77988846    -0.74700
O115        O  0.27323190  0.38762941  0.80168156    -0.63300
O116        O  0.18081529  0.43393196  0.80301453    -0.71700
O117        O  0.19529846  0.52783674  0.80520608    -0.71300
O118        O  0.28519433  0.48264665  0.80422937    -0.62500
O119        O  0.24082108  0.51193286  0.78165272    -0.75000
O120        O  0.23919267  0.49205843  0.82796001    -0.73800
Cu121      Cu  0.22639207  0.40617308  0.80221354     1.04600
Cu122      Cu  0.24053040  0.50699138  0.80487206     1.04300
C123        C  0.23279069  0.44061561  0.83349401     0.92500
C124        C  0.23454049  0.46676192  0.77346419     0.91600
C125        C  0.29371487  0.42895589  0.80265143     0.83800
C126        C  0.17382185  0.48904665  0.80413771     0.90100
O127        O  0.23117212  0.43879034  0.65258553    -0.73700
O128        O  0.23157977  0.41994214  0.69882007    -0.74700
O129        O  0.18591716  0.44550572  0.67665632    -0.63300
O130        O  0.27644276  0.40713183  0.67478911    -0.71700
O131        O  0.28928473  0.50182440  0.67684207    -0.71300
O132        O  0.19690971  0.04845549  0.67960548    -0.62500
O133        O  0.24361082  0.51479505  0.70045337    -0.75000
O134        O  0.24199069  0.03927464  0.65595522    -0.73800
Cu135      Cu  0.23095039  0.42444896  0.67560144     1.04600
Cu136      Cu  0.24323612  0.52623567  0.67810730     1.04300
C137        C  0.23595626  0.49075318  0.64702433     0.92500
C138        C  0.23724599  0.46557253  0.70694999     0.91600
C139        C  0.17677922  0.00639198  0.67928009     0.83800
C140        C  0.29728464  0.44727217  0.67544386     0.90100
O141        O  0.49470260  0.41788937  0.82818422    -0.73700
O142        O  0.49341046  0.39996033  0.78333895    -0.74700
O143        O  0.44738660  0.42838402  0.80573298    -0.63300
O144        O  0.54039252  0.38376510  0.80591937    -0.71700
O145        O  0.52601194  0.28967616  0.80835184    -0.71300
O146        O  0.43609158  0.33327577  0.80889486    -0.62500
O147        O  0.47997858  0.30552117  0.78554446    -0.75000
O148        O  0.48261674  0.32342224  0.83181308    -0.73800
Cu149      Cu  0.49446160  0.41079999  0.80571234     1.04600
Cu150      Cu  0.48077364  0.30966747  0.80877868     1.04300
C151        C  0.48925041  0.37456997  0.83719692     0.92500
C152        C  0.48601621  0.35111805  0.77718726     0.91600
C153        C  0.42711086  0.38674422  0.80735699     0.83800
C154        C  0.54744343  0.32857898  0.80692300     0.90100
O155        O  0.43294564  0.31197036  0.68155154    -0.73700
O156        O  0.52570749  0.27017209  0.68330810    -0.74700
O157        O  0.47825619  0.29885533  0.70492306    -0.63300
O158        O  0.47989445  0.27759074  0.66012919    -0.71700
O159        O  0.49284248  0.37138734  0.65634357    -0.71300
O160        O  0.49025598  0.39391222  0.70244437    -0.62500
O161        O  0.53658966  0.36549691  0.68045100    -0.75000
O162        O  0.44671152  0.40607909  0.67836409    -0.73800
Cu163      Cu  0.47874442  0.28633962  0.68257336     1.04600
Cu164      Cu  0.49197306  0.38753257  0.67926163     1.04300
C165        C  0.42555219  0.36670776  0.67984520     0.92500
C166        C  0.54578406  0.31232088  0.68235178     0.91600
C167        C  0.48437963  0.34860927  0.71093204     0.83800
C168        C  0.48653837  0.32005349  0.65100719     0.90100
O169        O  0.79218367  0.26302866  0.68407131    -0.73700
O170        O  0.70076737  0.31261300  0.68447676    -0.74700
O171        O  0.74487960  0.27765240  0.70657965    -0.63300
O172        O  0.74863327  0.30314752  0.66197199    -0.71700
O173        O  0.73520288  0.21012444  0.65768184    -0.71300
O174        O  0.73033304  0.18417920  0.70372477    -0.62500
O175        O  0.68788834  0.21876480  0.68074382    -0.75000
O176        O  0.77682652  0.17008560  0.68079372    -0.73800
Cu177      Cu  0.74711429  0.29235353  0.68436340     1.04600
Cu178      Cu  0.73205767  0.19248576  0.68056684     1.04300
C179        C  0.79854007  0.20778399  0.68273020     0.92500
C180        C  0.67990439  0.27250961  0.68278813     0.91600
C181        C  0.73743325  0.22769221  0.71235133     0.83800
C182        C  0.74291899  0.26172279  0.65265867     0.90100
O183        O  0.72314623  0.12827113  0.82779657    -0.73700
O184        O  0.72266204  0.16004001  0.78348089    -0.74700
O185        O  0.76898925  0.11917550  0.80415010    -0.63300
O186        O  0.67786959  0.17507542  0.80723157    -0.71700
O187        O  0.69533267  0.26534101  0.81205273    -0.71300
O188        O  0.78340802  0.21259836  0.80742697    -0.62500
O189        O  0.73739133  0.25309603  0.78691009    -0.75000
O190        O  0.74113845  0.21788740  0.83249079    -0.73800
Cu191      Cu  0.72253790  0.14242228  0.80555514     1.04600
Cu192      Cu  0.73980320  0.24045117  0.80990331     1.04300
C193        C  0.73316589  0.16601713  0.83723092     0.92500
C194        C  0.72944509  0.21085614  0.77804283     0.91600
C195        C  0.79050161  0.15869283  0.80506632     0.83800
C196        C  0.67256180  0.22993499  0.81007368     0.90100
O197        O  0.99118175  0.13715566  0.70335853    -0.73700
O198        O  0.99189828  0.11419833  0.65734811    -0.74700
O199        O  0.94725739  0.15383494  0.67951570    -0.63300
O200        O  0.03567697  0.10338005  0.68098362    -0.71700
O201        O  0.02191175  0.00933681  0.68418993    -0.71300
O202        O  0.93084027  0.06143859  0.68279174    -0.62500
O203        O  0.97629719  0.02198929  0.66126019    -0.75000
O204        O  0.97585886  0.04372709  0.70595317    -0.73800
Cu205      Cu  0.99192800  0.13047397  0.68019187     1.04600
Cu206      Cu  0.97562868  0.03091249  0.68367419     1.04300
C207        C  0.98384588  0.09266464  0.71186270     0.92500
C208        C  0.98454254  0.06331336  0.65208864     0.91600
C209        C  0.92495686  0.11664604  0.68076935     0.83800
C210        C  0.04314408  0.04915876  0.68262078     0.90100
O211        O  0.99161608  0.14288723  0.78410508    -0.73700
O212        O  0.98972183  0.15867030  0.82904288    -0.74700
O213        O  0.03754575  0.12969773  0.80717789    -0.63300
O214        O  0.94350574  0.16538617  0.80609236    -0.71700
O215        O  0.93461386  0.06918387  0.80897427    -0.71300
O216        O  0.02549980  0.03444716  0.80921332    -0.62500
O217        O  0.98030423  0.06262672  0.83214468    -0.75000
O218        O  0.98004107  0.04727361  0.78592821    -0.73800
Cu219      Cu  0.99102336  0.15255919  0.80652132     1.04600
Cu220      Cu  0.97983413  0.05003518  0.80914418     1.04300
C221        C  0.98554302  0.09372012  0.77780574     0.92500
C222        C  0.98442588  0.11432590  0.83774075     0.91600
C223        C  0.04601684  0.07526145  0.80846385     0.83800
C224        C  0.92432300  0.12184771  0.80758672     0.90100
O225        O  0.73338960  0.40522983  0.53776941    -0.73700
O226        O  0.73551620  0.37661710  0.58366844    -0.74700
O227        O  0.77964826  0.41268163  0.56059859    -0.63300
O228        O  0.68894560  0.37506982  0.56079666    -0.71700
O229        O  0.69880344  0.28013662  0.55648449    -0.71300
O230        O  0.79237656  0.31801042  0.55745617    -0.62500
O231        O  0.74544987  0.28161762  0.57920874    -0.75000
O232        O  0.74566023  0.31040210  0.53467934    -0.73800
Cu233      Cu  0.73406036  0.39572498  0.56088427     1.04600
Cu234      Cu  0.74607392  0.29422606  0.55684509     1.04300
C235        C  0.73877674  0.36086422  0.52905161     0.92500
C236        C  0.73998840  0.32349847  0.58851555     0.91600
C237        C  0.80037608  0.37246690  0.55877589     0.83800
C238        C  0.67915847  0.32268522  0.55862420     0.90100
O239        O  0.70025532  0.32021282  0.43256927    -0.73700
O240        O  0.79105673  0.35408840  0.43179388    -0.74700
O241        O  0.74667364  0.33051217  0.45512339    -0.63300
O242        O  0.74376053  0.34918084  0.40911906    -0.71700
O243        O  0.73501624  0.44543737  0.41213928    -0.71300
O244        O  0.73580887  0.42637868  0.45713912    -0.62500
O245        O  0.78263556  0.44998563  0.43468675    -0.75000
O246        O  0.68835248  0.41580731  0.43441645    -0.73800
Cu247      Cu  0.74580095  0.33527995  0.43203093     1.04600
Cu248      Cu  0.73506920  0.43787924  0.43467649     1.04300
C249        C  0.67988720  0.36141562  0.43358542     0.92500
C250        C  0.80178684  0.40616748  0.43347198     0.91600
C251        C  0.74192217  0.37650306  0.46333274     0.83800
C252        C  0.73864754  0.40086839  0.40348004     0.90100
O253        O  0.03945931  0.51209974  0.42876406    -0.73700
O254        O  0.94880499  0.47799776  0.43028041    -0.74700
O255        O  0.99375131  0.50527296  0.45254745    -0.63300
O256        O  0.99458896  0.47760147  0.40662521    -0.71700
O257        O  0.00344556  0.38281906  0.41143728    -0.71300
O258        O  0.00587050  0.41041592  0.45576000    -0.62500
O259        O  0.95758367  0.38306686  0.43512576    -0.75000
O260        O  0.05177489  0.41720515  0.43190129    -0.73800
Cu261      Cu  0.99390885  0.49657526  0.42939958     1.04600
Cu262      Cu  0.00514795  0.39505345  0.43367271     1.04300
C263        C  0.06006605  0.47146288  0.43006026     0.92500
C264        C  0.93834387  0.42626553  0.43302046     0.91600
C265        C  0.99915665  0.46077411  0.46135520     0.83800
C266        C  0.99861143  0.42435759  0.40188019     0.90100
O267        O  0.93693207  0.50645350  0.55665552    -0.73700
O268        O  0.02789014  0.05318370  0.55486025    -0.74700
O269        O  0.98309087  0.51634136  0.53299535    -0.63300
O270        O  0.98179839  0.04440482  0.57853050    -0.71700
O271        O  0.99527139  0.44706549  0.58176562    -0.71300
O272        O  0.99533119  0.42139623  0.53595623    -0.62500
O273        O  0.04057823  0.45035456  0.55775493    -0.75000
O274        O  0.95007442  0.41219763  0.56018443    -0.73800
Cu275      Cu  0.98298694  0.53071416  0.55517011     1.04600
Cu276      Cu  0.99563424  0.42942188  0.55905768     1.04300
C277        C  0.92909837  0.45230201  0.55902602     0.92500
C278        C  0.04838696  0.01156527  0.55602743     0.91600
C279        C  0.99006808  0.46627866  0.52727403     0.83800
C280        C  0.98958275  0.49913856  0.58684797     0.90100
O281        O  0.20900114  0.03133418  0.42669505    -0.73700
O282        O  0.29777250  0.08277720  0.42615305    -0.74700
O283        O  0.25437055  0.05044946  0.44961138    -0.63300
O284        O  0.25125246  0.07062209  0.40323364    -0.71700
O285        O  0.23699685  0.16421795  0.40691769    -0.71300
O286        O  0.23906735  0.14408561  0.45164992    -0.62500
O287        O  0.28419739  0.17687757  0.42919040    -0.75000
O288        O  0.19260537  0.12400218  0.42942350    -0.73800
Cu289      Cu  0.25365073  0.05550618  0.42629076     1.04600
Cu290      Cu  0.23764055  0.15551560  0.42935902     1.04300
C291        C  0.18665663  0.06841782  0.42843988     0.92500
C292        C  0.30547138  0.13680956  0.42756855     0.91600
C293        C  0.24685714  0.09521750  0.45787348     0.83800
C294        C  0.24386614  0.12197855  0.39794948     0.90100
O295        O  0.20368253  0.01038895  0.55162418    -0.73700
O296        O  0.29568926  0.05896270  0.55375045    -0.74700
O297        O  0.24895817  0.01946286  0.57470990    -0.63300
O298        O  0.25100668  0.04357183  0.53019404    -0.71700
O299        O  0.23713891  0.13778758  0.53247374    -0.71300
O300        O  0.23336745  0.11193935  0.57871467    -0.62500
O301        O  0.27952051  0.15143014  0.55721116    -0.75000
O302        O  0.19018487  0.10484759  0.55421773    -0.73800
Cu303      Cu  0.25035996  0.02993513  0.55243330     1.04600
Cu304      Cu  0.23457277  0.12989468  0.55574494     1.04300
C305        C  0.18250554  0.05081058  0.55276072     0.92500
C306        C  0.30176416  0.11371199  0.55618150     0.91600
C307        C  0.24114179  0.06054174  0.58385076     0.83800
C308        C  0.24436285  0.09327410  0.52407853     0.90100
O309        O  0.49357228  0.21338512  0.58064164    -0.73700
O310        O  0.49497645  0.19394901  0.53448053    -0.74700
O311        O  0.53862217  0.22686214  0.55677296    -0.63300
O312        O  0.45021549  0.17357997  0.55811782    -0.71700
O313        O  0.43282319  0.26570775  0.55510987    -0.71300
O314        O  0.52407206  0.32103836  0.55450865    -0.62500
O315        O  0.47974336  0.28726046  0.53234576    -0.75000
O316        O  0.47658185  0.30520507  0.57720956    -0.73800
Cu317      Cu  0.49480444  0.19869280  0.55765003     1.04600
Cu318      Cu  0.47765707  0.29802887  0.55472672     1.04300
C319        C  0.48504956  0.26353940  0.58615961     0.92500
C320        C  0.48810319  0.23884008  0.52609623     0.91600
C321        C  0.54567088  0.28128008  0.55525899     0.83800
C322        C  0.42756410  0.20994619  0.55640238     0.90100
O323        O  0.50665279  0.16884665  0.40878092    -0.73700
O324        O  0.50342965  0.19011581  0.45347831    -0.74700
O325        O  0.45961373  0.15328647  0.43158945    -0.63300
O326        O  0.55001348  0.21083450  0.43076071    -0.71700
O327        O  0.53233716  0.30204212  0.42654597    -0.71300
O328        O  0.44403230  0.24684261  0.42924344    -0.62500
O329        O  0.48822158  0.28330346  0.45093584    -0.75000
O330        O  0.48803175  0.25917112  0.40493026    -0.73800
Cu331      Cu  0.50561322  0.17765324  0.43123090     1.04600
Cu332      Cu  0.48769839  0.27616966  0.42776339     1.04300
C333        C  0.49701808  0.20897198  0.39964234     0.92500
C334        C  0.49508043  0.23892685  0.45951571     0.91600
C335        C  0.43759207  0.19215752  0.43085948     0.83800
C336        C  0.55515052  0.26618921  0.42854804     0.90100
O337        O  0.21999412  0.38689481  0.95199922    -0.73700
O338        O  0.21910867  0.41529991  0.90731036    -0.74700
O339        O  0.17411242  0.37057360  0.92915717    -0.63300
O340        O  0.26564501  0.42540141  0.93039584    -0.71700
O341        O  0.27981974  0.33195644  0.92670463    -0.71300
O342        O  0.19173143  0.27951761  0.92492437    -0.62500
O343        O  0.23585212  0.32415153  0.90299964    -0.75000
O344        O  0.23570369  0.29413673  0.94877012    -0.73800
Cu345      Cu  0.21905527  0.40284456  0.92980194     1.04600
Cu346      Cu  0.23621480  0.30430629  0.92567490     1.04300
C347        C  0.22837426  0.33717221  0.95760811     0.92500
C348        C  0.22778412  0.37535902  0.89793842     0.91600
C349        C  0.16890275  0.31533101  0.92691994     0.83800
C350        C  0.28716416  0.38565418  0.92899597     0.90100
O351        O  0.23149310  0.35276315  0.07815169    -0.73700
O352        O  0.22846571  0.37545519  0.03210317    -0.74700
O353        O  0.18497957  0.34499255  0.05558808    -0.63300
O354        O  0.27458032  0.38981308  0.05489910    -0.71700
O355        O  0.28952136  0.29619980  0.05199990    -0.71300
O356        O  0.19700999  0.25023736  0.05212501    -0.62500
O357        O  0.24248791  0.28130274  0.02958291    -0.75000
O358        O  0.24487982  0.25928583  0.07425221    -0.73800
Cu359      Cu  0.22947142  0.36907984  0.05528835     1.04600
Cu360      Cu  0.24398354  0.26847201  0.05187166     1.04300
C361        C  0.23868260  0.30134673  0.08341283     0.92500
C362        C  0.23468013  0.33070961  0.02362417     0.91600
C363        C  0.17648285  0.29149756  0.05397719     0.83800
C364        C  0.29625338  0.35123571  0.05336104     0.90100
O365        O  0.72719404  0.14879694  0.91124021    -0.73700
O366        O  0.72457992  0.11945965  0.95580126    -0.74700
O367        O  0.77305942  0.15088264  0.93441356    -0.63300
O368        O  0.67975619  0.11204771  0.93241653    -0.71700
O369        O  0.69313997  0.01848870  0.92844169    -0.71300
O370        O  0.78348343  0.05581138  0.93040949    -0.62500
O371        O  0.73700300  0.02472095  0.95251663    -0.75000
O372        O  0.73949387  0.05503066  0.90676948    -0.73800
Cu373      Cu  0.72570151  0.13614519  0.93361460     1.04600
Cu374      Cu  0.73860270  0.03521257  0.92941950     1.04300
C375        C  0.73448832  0.10793373  0.90190608     0.92500
C376        C  0.73012422  0.06819657  0.96129904     0.91600
C377        C  0.79289351  0.10858306  0.93231668     0.83800
C378        C  0.67198008  0.05808285  0.93008564     0.90100
O379        O  0.79078375  0.02816191  0.05493045    -0.73700
O380        O  0.69751140  0.98578447  0.05613152    -0.74700
O381        O  0.74297859  0.01324345  0.03300962    -0.63300
O382        O  0.74600904  0.99460758  0.07782625    -0.71700
O383        O  0.73464693  0.08906116  0.08134044    -0.71300
O384        O  0.72971362  0.10808893  0.03508442    -0.62500
O385        O  0.68694127  0.08118389  0.05909490    -0.75000
O386        O  0.77682516  0.12234201  0.05737765    -0.73800
Cu387      Cu  0.74476489  0.00211485  0.05537198     1.04600
Cu388      Cu  0.73162249  0.10345515  0.05831659     1.04300
C389        C  0.79818104  0.08304131  0.05599112     0.92500
C390        C  0.67755828  0.02802072  0.05806771     0.91600
C391        C  0.73608259  0.06274292  0.02684998     0.83800
C392        C  0.74104272  0.03752560  0.08684115     0.90100
O393        O  0.48753523  0.40589346  0.95554727    -0.73700
O394        O  0.48896407  0.38385424  0.91073582    -0.74700
O395        O  0.53513860  0.41623912  0.93258592    -0.63300
O396        O  0.44161707  0.37983971  0.93355467    -0.71700
O397        O  0.43196687  0.47540101  0.93031271    -0.71300
O398        O  0.52308485  0.51109687  0.92943331    -0.62500
O399        O  0.47870230  0.47928477  0.90688039    -0.75000
O400        O  0.47703624  0.50185860  0.95304079    -0.73800
Cu401      Cu  0.48877407  0.39317828  0.93321847     1.04600
Cu402      Cu  0.47736557  0.49527415  0.92979124     1.04300
C403        C  0.48169384  0.45606030  0.96149176     0.92500
C404        C  0.48356377  0.42699928  0.90169484     0.91600
C405        C  0.54366063  0.47044798  0.93102885     0.83800
C406        C  0.42197158  0.42259979  0.93199662     0.90100
O407        O  0.48860386  0.42369766  0.08187694    -0.73700
O408        O  0.49040322  0.40862103  0.03529423    -0.74700
O409        O  0.53520469  0.43041276  0.05819681    -0.63300
O410        O  0.44465296  0.39476713  0.05893972    -0.71700
O411        O  0.43185956  0.48949435  0.05616504    -0.71300
O412        O  0.52343212  0.03656146  0.05528507    -0.62500
O413        O  0.48030165  0.50500147  0.03367588    -0.75000
O414        O  0.47450731  0.02918702  0.07769200    -0.73800
Cu415      Cu  0.49009088  0.41100095  0.05867047     1.04600
Cu416      Cu  0.47604900  0.02207554  0.05521567     1.04300
C417        C  0.48167107  0.47469786  0.08742960     0.92500
C418        C  0.48610574  0.45576917  0.02726437     0.91600
C419        C  0.54305711  0.99333099  0.05624301     0.83800
C420        C  0.42380765  0.43501469  0.05778645     0.90100
O421        O  0.93471439  0.19645427  0.93184491    -0.73700
O422        O  0.02360663  0.24630841  0.93115518    -0.74700
O423        O  0.98093941  0.20973853  0.90820996    -0.63300
O424        O  0.97832224  0.22599007  0.95446775    -0.71700
O425        O  0.99392872  0.13242034  0.95634356    -0.71300
O426        O  0.99518853  0.11621383  0.91153060    -0.62500
O427        O  0.04025639  0.15326682  0.93317522    -0.75000
O428        O  0.94809701  0.10175398  0.93447924    -0.73800
Cu429      Cu  0.97889370  0.22287514  0.93129468     1.04600
Cu430      Cu  0.99492341  0.12260112  0.93394874     1.04300
C431        C  0.92700642  0.14245688  0.93357615     0.92500
C432        C  0.04597749  0.20898706  0.93218560     0.91600
C433        C  0.98868781  0.15916778  0.90264289     0.83800
C434        C  0.98558553  0.18063405  0.96264110     0.90100
O435        O  0.93085932  0.23260057  0.05600430    -0.73700
O436        O  0.02166231  0.28685974  0.05563928    -0.74700
O437        O  0.97862162  0.24825525  0.03370470    -0.63300
O438        O  0.97351869  0.27674034  0.07809725    -0.71700
O439        O  0.98837505  0.18432404  0.08307758    -0.71300
O440        O  0.99483009  0.15576941  0.03729700    -0.62500
O441        O  0.03620384  0.19379208  0.06012996    -0.75000
O442        O  0.94743113  0.14080835  0.05998816    -0.73800
Cu443      Cu  0.97554384  0.26426546  0.05576912     1.04600
Cu444      Cu  0.99218403  0.16538000  0.06035341     1.04300
C445        C  0.92502192  0.17718714  0.05752279     0.92500
C446        C  0.04319610  0.24778183  0.05761119     0.91600
C447        C  0.98808089  0.19904327  0.02832670     0.83800
C448        C  0.98035239  0.23614827  0.08767587     0.90100
C449        C  0.99032496  0.19307031  0.01155894    -0.06900
C450        C  0.98220280  0.13911696  0.00490735    -0.18000
C451        C  0.97945652  0.13401115  0.98905771     0.10300
C452        C  0.98543755  0.18395921  0.97949647    -0.06800
C453        C  0.99407883  0.23751334  0.98618107    -0.18000
C454        C  0.99730325  0.24228527  0.00196366     0.10400
S455        S  0.96670651  0.06328204  0.98198985    -0.33000
S456        S  0.01210233  0.31162246  0.00899148    -0.33000
H457        H  0.03034879  0.28556745  0.02057828     0.28400
H458        H  0.94698534  0.08720883  0.97071476     0.28400
H459        H  0.97657442  0.10126193  0.01214240     0.18900
H460        H  0.99963597  0.27555268  0.97899690     0.19000
C461        C  0.48056271  0.45934434  0.97831711    -0.06900
C462        C  0.49962760  0.50030002  0.98573314    -0.18000
C463        C  0.50307249  0.49838384  0.00163645     0.10300
C464        C  0.48693849  0.45462565  0.01040514    -0.06800
C465        C  0.46771632  0.41404511  0.00296032    -0.18000
C466        C  0.46391324  0.41665156  0.98711812     0.10400
S467        S  0.52364048  0.06277717  0.00921071    -0.33000
S468        S  0.43623948  0.36608731  0.97885280    -0.33000
H469        H  0.42657795  0.40493464  0.96715131     0.28400
H470        H  0.53563035  0.02771117  0.02115656     0.28400
H471        H  0.51286745  0.53250719  0.97905040     0.18900
H472        H  0.45440104  0.38183584  0.00960563     0.19000
C473        C  0.64320485  0.01701280  0.05864248    -0.06900
C474        C  0.63095091  0.97030474  0.05014471    -0.18000
C475        C  0.59843772  0.96311156  0.04861934     0.10300
C476        C  0.57737375  0.00326290  0.05586116    -0.06800
C477        C  0.58956479  0.04965644  0.06443645    -0.18000
C478        C  0.62202393  0.05608216  0.06624366     0.10400
S479        S  0.58554385  0.90300909  0.03677567    -0.33000
S480        S  0.63456204  0.11274684  0.07923598    -0.33000
H481        H  0.65926295  0.07875810  0.08541054     0.28400
H482        H  0.55944521  0.93339779  0.03079068     0.28400
H483        H  0.64678602  0.94040948  0.04416731     0.18900
H484        H  0.57364409  0.07931154  0.07044808     0.19000
C485        C  0.89249459  0.15338703  0.05640480    -0.06900
C486        C  0.88641046  0.09636310  0.06243971    -0.18000
C487        C  0.85627072  0.07148703  0.06223719     0.10300
C488        C  0.83128523  0.10353344  0.05561793    -0.06800
C489        C  0.83747179  0.15973662  0.04921410    -0.18000
C490        C  0.86757029  0.18459338  0.04934909     0.10400
S491        S  0.85092047  0.00077975  0.07156218    -0.33000
S492        S  0.87241547  0.25514380  0.03984204    -0.33000
H493        H  0.89945993  0.23728760  0.03160600     0.28400
H494        H  0.82364316  0.01861689  0.07959210     0.28400
H495        H  0.90509846  0.07136074  0.06785027     0.18900
H496        H  0.81860970  0.18459740  0.04388486     0.19000
C497        C  0.82715957  0.11907388  0.93209935    -0.06900
C498        C  0.84028763  0.15423499  0.94344998    -0.18000
C499        C  0.87296956  0.15927456  0.94477476     0.10300
C500        C  0.89315399  0.12896347  0.93445256    -0.06800
C501        C  0.88006570  0.09376777  0.92310688    -0.18000
C502        C  0.84738279  0.08935308  0.92164384     0.10400
S503        S  0.88751913  0.20436055  0.96005784    -0.33000
S504        S  0.83296324  0.04833396  0.90557490    -0.33000
H505        H  0.80703701  0.08589388  0.90292993     0.28400
H506        H  0.91555721  0.17225617  0.96210800     0.28400
H507        H  0.82503750  0.17646021  0.95162715     0.18900
H508        H  0.89535362  0.07233985  0.91479873     0.19000
C509        C  0.63861750  0.03902730  0.92964858    -0.06900
C510        C  0.63196742  0.97923110  0.93304105    -0.18000
C511        C  0.60120964  0.95749717  0.93337565     0.10300
C512        C  0.57726731  0.48821955  0.93097846    -0.06800
C513        C  0.58263322  0.05581483  0.92645348    -0.18000
C514        C  0.61344185  0.07741389  0.92606193     0.10400
S515        S  0.59227922  0.39440148  0.95134087    -0.33000
S516        S  0.61882811  0.15348970  0.92022581    -0.33000
H517        H  0.64427596  0.14101505  0.91029527     0.28400
H518        H  0.56492486  0.41944443  0.95789420     0.28400
H519        H  0.65092978  0.94895263  0.93586129     0.18900
H520        H  0.56378731  0.08631302  0.92362515     0.19000
C521        C  0.72952589  0.06110381  0.97802350    -0.06900
C522        C  0.75621975  0.03767070  0.98511253    -0.18000
C523        C  0.75954221  0.04036850  0.00096136     0.10300
C524        C  0.73533151  0.06592987  0.01004570    -0.06800
C525        C  0.70836225  0.08846078  0.00297315    -0.18000
C526        C  0.70504626  0.08570232  0.98710472     0.10400
S527        S  0.79600011  0.01328229  0.00881111    -0.33000
S528        S  0.66858474  0.11235403  0.97915504    -0.33000
H529        H  0.66864352  0.07352336  0.96665950     0.28400
H530        H  0.79733470  0.05513949  0.02060613     0.28400
H531        H  0.77535895  0.01999677  0.97819796     0.18900
H532        H  0.68930220  0.10640607  0.00988964     0.19000
C533        C  0.07670006  0.26303779  0.05628879    -0.06900
C534        C  0.09498260  0.23287069  0.04533286    -0.18000
C535        C  0.12753632  0.24137786  0.04415803     0.10300
C536        C  0.14244163  0.27908835  0.05457834    -0.06800
C537        C  0.12407354  0.30903999  0.06558230    -0.18000
C538        C  0.09142983  0.30177208  0.06647214     0.10400
S539        S  0.14833210  0.20514163  0.02875538    -0.33000
S540        S  0.07028109  0.33906749  0.08157539    -0.33000
H541        H  0.04661497  0.36155772  0.07206182     0.28400
H542        H  0.16856877  0.25290704  0.02547569     0.28400
H543        H  0.08368143  0.20300976  0.03748424     0.18900
H544        H  0.13529946  0.33816385  0.07363505     0.19000
C545        C  0.39043220  0.41651910  0.05783437    -0.06900
C546        C  0.36936374  0.44566566  0.04811548    -0.18000
C547        C  0.33900108  0.42366410  0.04589371     0.10300
C548        C  0.32916420  0.37154687  0.05367292    -0.06800
C549        C  0.35002198  0.34285123  0.06353455    -0.18000
C550        C  0.38015199  0.36532840  0.06596430     0.10400
S551        S  0.31441516  0.46268424  0.03246512    -0.33000
S552        S  0.40359526  0.32829545  0.08023109    -0.33000
H553        H  0.41772574  0.38038647  0.08556537     0.28400
H554        H  0.29904165  0.41188876  0.02713885     0.28400
H555        H  0.37702107  0.48439204  0.04168612     0.18900
H556        H  0.34225219  0.30419094  0.06997061     0.19000
C557        C  0.32110174  0.39889481  0.93037914    -0.06900
C558        C  0.34032373  0.35439080  0.93672506    -0.18000
C559        C  0.37300076  0.36005048  0.93727647     0.10300
C560        C  0.38737281  0.41254311  0.93178263    -0.06800
C561        C  0.36793352  0.45798191  0.92587841    -0.18000
C562        C  0.33524054  0.45136681  0.92487524     0.10400
S563        S  0.39456505  0.29874244  0.94530872    -0.33000
S564        S  0.31337147  0.50976382  0.91563627    -0.33000
H565        H  0.29464385  0.47130846  0.90705663     0.28400
H566        H  0.40948331  0.28545389  0.93129260     0.28400
H567        H  0.32978926  0.31390470  0.94111859     0.18900
H568        H  0.37832495  0.49850940  0.92146731     0.19000
C569        C  0.07838372  0.23231397  0.93194070    -0.06900
C570        C  0.09909550  0.21416022  0.92032242    -0.18000
C571        C  0.12782181  0.24316615  0.91778828     0.10300
C572        C  0.13664347  0.29064940  0.92733964    -0.06800
C573        C  0.11586064  0.30868665  0.93897907    -0.18000
C574        C  0.08708745  0.27981198  0.94145823     0.10400
S575        S  0.15138943  0.21944368  0.90165900    -0.33000
S576        S  0.06290144  0.30423540  0.95730740    -0.33000
H577        H  0.04956508  0.24845157  0.96046164     0.28400
H578        H  0.16340705  0.27603987  0.89816951     0.28400
H579        H  0.09214505  0.17910909  0.91266657     0.18900
H580        H  0.12264622  0.34388420  0.94662231     0.19000
C581        C  0.22947818  0.33164090  0.97447935    -0.06900
C582        C  0.20918246  0.36803216  0.98316459    -0.18000
C583        C  0.21026503  0.36900348  0.99911420     0.10300
C584        C  0.23281806  0.33408620  0.00677125    -0.06800
C585        C  0.25324435  0.29789187  0.99810927    -0.18000
C586        C  0.25169875  0.29595297  0.98216540     0.10400
S587        S  0.18125399  0.41357045  0.00893909    -0.33000
S588        S  0.28004104  0.25016004  0.97231470    -0.33000
H589        H  0.25674731  0.21349150  0.96616316     0.28400
H590        H  0.17377709  0.36968015  0.01988725     0.28400
H591        H  0.19187199  0.39552401  0.97748066     0.09300
H592        H  0.27071268  0.27081246  0.00381225     0.19000
C593        C  0.48994371  0.23705123  0.50906302    -0.06900
C594        C  0.48115474  0.28847101  0.50082986    -0.18000
C595        C  0.48250762  0.29135540  0.48480368     0.10300
C596        C  0.49318276  0.24140960  0.47654485    -0.06800
C597        C  0.50166488  0.18993175  0.48479536    -0.18000
C598        C  0.50025669  0.18711202  0.50072854     0.10400
S599        S  0.47001378  0.35893056  0.47536255    -0.33000
S600        S  0.51166036  0.11785829  0.50943818    -0.33000
H601        H  0.53583927  0.14365566  0.51790736     0.28400
H602        H  0.46248246  0.39161779  0.48852977     0.28400
H603        H  0.47299116  0.32705710  0.50698702     0.18900
H604        H  0.50967921  0.15073982  0.47880836     0.19000
C605        C  0.33454205  0.13518476  0.55742355    -0.06900
C606        C  0.35786010  0.11112427  0.54783597    -0.18000
C607        C  0.38799016  0.13599133  0.54692742     0.10300
C608        C  0.39529791  0.18599800  0.55588978    -0.06800
C609        C  0.37221765  0.20941233  0.56568111    -0.18000
C610        C  0.34229932  0.18379801  0.56682734     0.10400
S611        S  0.41563480  0.10335496  0.53359787    -0.33000
S612        S  0.31579147  0.21302956  0.58118670    -0.33000
H613        H  0.30211144  0.15799897  0.58492670     0.28400
H614        H  0.42998182  0.15711745  0.52930597     0.28400
H615        H  0.35222246  0.07422017  0.54051448     0.18900
H616        H  0.37797766  0.24628744  0.57299421     0.19000
C617        C  0.33938020  0.15164836  0.42783709    -0.06900
C618        C  0.34936528  0.19689800  0.43751851    -0.18000
C619        C  0.38140653  0.20834611  0.43950820     0.10300
C620        C  0.40420115  0.17488952  0.43135870    -0.06800
C621        C  0.39437114  0.12917510  0.42187297    -0.18000
C622        C  0.36238270  0.11765952  0.41984796     0.10400
S623        S  0.39174918  0.26459145  0.45308564    -0.33000
S624        S  0.35283600  0.06093097  0.40627342    -0.33000
H625        H  0.32647548  0.09060041  0.40034646     0.28400
H626        H  0.41993256  0.23726167  0.45772546     0.28400
H627        H  0.33214670  0.22215646  0.44401837     0.18900
H628        H  0.41170470  0.10419088  0.41536490     0.19000
C629        C  0.24445831  0.09635670  0.50713796    -0.06900
C630        C  0.23677926  0.04438861  0.49918336    -0.18000
C631        C  0.23736785  0.04229533  0.48321829     0.10300
C632        C  0.24691001  0.09267780  0.47478208    -0.06800
C633        C  0.25492265  0.14449537  0.48271160    -0.18000
C634        C  0.25350148  0.14705560  0.49868268     0.10400
S635        S  0.22395751  0.97524053  0.47439494    -0.33000
S636        S  0.26520287  0.21495432  0.50757203    -0.33000
H637        H  0.23515931  0.22489693  0.51402914     0.28400
H638        H  0.20572449  0.00461167  0.46333279     0.28400
H639        H  0.22945664  0.00516854  0.50546182     0.18900
H640        H  0.26229937  0.18360676  0.47640139     0.19000
C641        C  0.08257851  0.02304935  0.55476209    -0.06900
C642        C  0.10282361  0.98774606  0.56364337    -0.18000
C643        C  0.13550874  0.99372504  0.56262834     0.10300
C644        C  0.14864408  0.03660312  0.55269586    -0.06800
C645        C  0.12849917  0.07228324  0.54386995    -0.18000
C646        C  0.09575301  0.06511098  0.54453466     0.10400
S647        S  0.15911706  0.94921107  0.57525831    -0.33000
S648        S  0.07238530  0.10895321  0.53160164    -0.33000
H649        H  0.05231335  0.06215838  0.52766081     0.28400
H650        H  0.17593378  0.92227889  0.56322378     0.28400
H651        H  0.09309908  0.95535375  0.57156486     0.18900
H652        H  0.13841388  0.10557201  0.53626067     0.19000
C653        C  0.09263873  0.99651525  0.43046981    -0.06900
C654        C  0.09986680  0.04822846  0.43854122    -0.18000
C655        C  0.13018941  0.07210511  0.43833620     0.10300
C656        C  0.15403702  0.04516427  0.42939108    -0.06800
C657        C  0.14694841  0.99261512  0.42153301    -0.18000
C658        C  0.11659322  0.96833796  0.42189010     0.10400
S659        S  0.13715613  0.13481227  0.45043306    -0.33000
S660        S  0.10955411  0.90368737  0.41049878    -0.33000
H661        H  0.07910019  0.42114008  0.40399766     0.28400
H662        H  0.16598018  0.11297550  0.45596719     0.28400
H663        H  0.08171511  0.06983348  0.44532963     0.18900
H664        H  0.16501403  0.97099906  0.41470184     0.19000
C665        C  0.99246627  0.46254209  0.51045016    -0.06900
C666        C  0.97287634  0.49972642  0.50172482    -0.18000
C667        C  0.97470179  0.50095897  0.48577233     0.10300
C668        C  0.99716099  0.46515283  0.47818440    -0.06800
C669        C  0.01684864  0.42810684  0.48691524    -0.18000
C670        C  0.01503563  0.42690357  0.50287395     0.10400
S671        S  0.94647022  0.54645292  0.47585682    -0.33000
S672        S  0.04332756  0.38156822  0.51280882    -0.33000
H673        H  0.05075897  0.42536219  0.52352416     0.28400
H674        H  0.93867127  0.50249525  0.46525082     0.28400
H675        H  0.95546012  0.52737865  0.50738067     0.18900
H676        H  0.03424159  0.40040799  0.48125584     0.19000
C677        C  0.83669187  0.41319321  0.43401301    -0.06900
C678        C  0.85547403  0.36201369  0.43187502    -0.18000
C679        C  0.88836294  0.36430809  0.43146721     0.10300
C680        C  0.90360692  0.41884930  0.43372645    -0.06800
C681        C  0.88497133  0.46980512  0.43621200    -0.18000
C682        C  0.85205892  0.46778893  0.43636361     0.10400
S683        S  0.90907942  0.29662230  0.42708080    -0.33000
S684        S  0.83165597  0.53688213  0.43937785    -0.33000
H685        H  0.81430495  0.51527451  0.45197370     0.28400
H686        H  0.92800655  0.32285690  0.41559477     0.28400
H687        H  0.84455675  0.31943453  0.43001130     0.18900
H688        H  0.89612499  0.51219509  0.43808101     0.19000
C689        C  0.64658072  0.34366943  0.43362225    -0.06900
C690        C  0.62737986  0.36236666  0.42159592    -0.18000
C691        C  0.59811011  0.33569730  0.41915148     0.10300
C692        C  0.58739856  0.29023933  0.42916939    -0.06800
C693        C  0.60657409  0.27208030  0.44124822    -0.18000
C694        C  0.63577428  0.29850976  0.44364304     0.10400
S695        S  0.57657219  0.35871010  0.40247972    -0.33000
S696        S  0.65817815  0.27311071  0.45981932    -0.33000
H697        H  0.67319347  0.32753424  0.46235449     0.28400
H698        H  0.56322610  0.30289800  0.39971648     0.28400
H699        H  0.63603331  0.39538722  0.41352518     0.18900
H700        H  0.59832317  0.23824857  0.44919020     0.19000
C701        C  0.64478254  0.31262345  0.55807862    -0.06900
C702        C  0.63332631  0.27092425  0.54779209    -0.18000
C703        C  0.60101351  0.26322081  0.54585313     0.10300
C704        C  0.57933764  0.29663419  0.55469015    -0.06800
C705        C  0.59061804  0.33868543  0.56489710    -0.18000
C706        C  0.62308494  0.34688742  0.56678525     0.10400
S707        S  0.58890932  0.21100369  0.53161146    -0.33000
S708        S  0.63623224  0.39780213  0.58121714    -0.33000
H709        H  0.60642751  0.42047835  0.58529848     0.28400
H710        H  0.56138890  0.24198562  0.52758130     0.28400
H711        H  0.64963470  0.24521155  0.54088906     0.18900
H712        H  0.57393758  0.36289298  0.57194113     0.19000
C713        C  0.89569859  0.43440515  0.55999259    -0.06900
C714        C  0.87436081  0.45989465  0.54977520    -0.18000
C715        C  0.84363469  0.43842567  0.54868561     0.10300
C716        C  0.83363940  0.39075096  0.55814486    -0.06800
C717        C  0.85479447  0.36564966  0.56849465    -0.18000
C718        C  0.88543297  0.38764341  0.56973751     0.10400
S719        S  0.81864447  0.47214555  0.53453737    -0.33000
S720        S  0.90960474  0.35652425  0.58460949    -0.33000
H721        H  0.92501883  0.40992353  0.58791710     0.28400
H722        H  0.80298555  0.41942222  0.53090961     0.28400
H723        H  0.88202966  0.49517184  0.54213392     0.18900
H724        H  0.84695099  0.33056386  0.57615486     0.19000
C725        C  0.73745598  0.36657452  0.51228358    -0.06900
C726        C  0.75140402  0.41576704  0.50513299    -0.18000
C727        C  0.75463520  0.41867731  0.48922195     0.10300
C728        C  0.74262848  0.37245688  0.48014696    -0.06800
C729        C  0.72857382  0.32347444  0.48730926    -0.18000
C730        C  0.72545192  0.32040638  0.50318821     0.10400
S731        S  0.77636071  0.48029108  0.48128847    -0.33000
S732        S  0.70443129  0.25770117  0.51105628    -0.33000
H733        H  0.68974008  0.29002176  0.52283858     0.28400
H734        H  0.79150263  0.44618787  0.46997359     0.28400
H735        H  0.76115468  0.45077024  0.51197667     0.18900
H736        H  0.71889948  0.28833503  0.48048003     0.19000
C737        C  0.98365882  0.12407852  0.85437383    -0.06900
C738        C  0.00257596  0.08841128  0.86364072    -0.18000
C739        C  0.00604423  0.10052221  0.87922233     0.10300
C740        C  0.98909925  0.14852797  0.88589289    -0.06800
C741        C  0.97036038  0.18440765  0.87648801    -0.18000
C742        C  0.96738954  0.17268255  0.86090365     0.10400
S743        S  0.03394726  0.05650796  0.88997627    -0.33000
S744        S  0.94167234  0.22047518  0.85007322    -0.33000
H745        H  0.93129373  0.17627844  0.84011610     0.28400
H746        H  0.04230649  0.01670098  0.87831427     0.28400
H747        H  0.01572971  0.05247155  0.85846533     0.18900
H748        H  0.95714410  0.22097726  0.88137617     0.19000
C749        C  0.98604327  0.04957828  0.63545248    -0.06900
C750        C  0.98270401  0.98981691  0.63110620    -0.18000
C751        C  0.98668695  0.46897748  0.61504149     0.10300
C752        C  0.98927903  0.01529925  0.60426001    -0.06800
C753        C  0.99318878  0.07482320  0.60858221    -0.18000
C754        C  0.99145556  0.09244134  0.62385597     0.10400
S755        S  0.98566756  0.39071256  0.61128019    -0.33000
S756        S  0.99568239  0.17042336  0.62747325    -0.33000
H757        H  0.96744608  0.17398778  0.63595683     0.28400
H758        H  0.01599519  0.39049356  0.60460718     0.28400
H759        H  0.98213590  0.45149632  0.63889755     0.18900
H760        H  0.99718211  0.10858718  0.59992715     0.19000
C761        C  0.98441757  0.09585209  0.72870377    -0.06900
C762        C  0.96108555  0.06484171  0.73699932    -0.18000
C763        C  0.96081912  0.06322603  0.75296266     0.10300
C764        C  0.98479332  0.09226428  0.76097123    -0.06800
C765        C  0.00798413  0.12378055  0.75271078    -0.18000
C766        C  0.00837695  0.12506988  0.73672041     0.10400
S767        S  0.92839497  0.02604330  0.76238532    -0.33000
S768        S  0.04114543  0.16117196  0.72730661    -0.33000
H769        H  0.04542030  0.11693890  0.71623028     0.28400
H770        H  0.92441225  0.06879688  0.77386668     0.28400
H771        H  0.94252053  0.04234908  0.73097925     0.18900
H772        H  0.02650665  0.14623200  0.75877203     0.19000
C773        C  0.73543628  0.14906751  0.85367156    -0.06900
C774        C  0.74210490  0.19323317  0.86433264    -0.18000
C775        C  0.74376323  0.18041418  0.87995595     0.10300
C776        C  0.73680012  0.12251400  0.88539694    -0.06800
C777        C  0.73103649  0.07795077  0.87478709    -0.18000
C778        C  0.73112764  0.08991538  0.85909541     0.10400
S779        S  0.75657738  0.23948575  0.89213281    -0.33000
S780        S  0.72669510  0.02659650  0.84688637    -0.33000
H781        H  0.75342703  0.04055616  0.83790341     0.28400
H782        H  0.77616485  0.20282732  0.90102286     0.28400
H783        H  0.74659009  0.23820898  0.86048946     0.18900
H784        H  0.72650291  0.03310031  0.87873358     0.19000
C785        C  0.82418954  0.14379568  0.80390131    -0.06900
C786        C  0.83628379  0.10020021  0.81365800    -0.18000
C787        C  0.86877505  0.09408578  0.81565747     0.10300
C788        C  0.88988265  0.13101427  0.80727760    -0.06800
C789        C  0.87767345  0.17380954  0.79729188    -0.18000
C790        C  0.84520659  0.18025533  0.79543301     0.10400
S791        S  0.88146859  0.04133440  0.82992400    -0.33000
S792        S  0.83197793  0.23529259  0.78187412    -0.33000
H793        H  0.80462418  0.20459153  0.77777843     0.28400
H794        H  0.90628218  0.07638410  0.83526160     0.28400
H795        H  0.82030323  0.07344494  0.82054112     0.18900
H796        H  0.89352598  0.20141116  0.79057483     0.19000
C797        C  0.74418468  0.27537032  0.63603947    -0.06900
C798        C  0.72453301  0.24406006  0.62620816    -0.18000
C799        C  0.72178713  0.26043048  0.61081783     0.10300
C800        C  0.73917018  0.30912619  0.60496288    -0.06800
C801        C  0.75900349  0.34010077  0.61467052    -0.18000
C802        C  0.76232057  0.32303542  0.62996339     0.10400
S803        S  0.69476317  0.21880473  0.59937201    -0.33000
S804        S  0.79162167  0.36183258  0.64072916    -0.33000
H805        H  0.80237712  0.31085543  0.64846152     0.28400
H806        H  0.68529619  0.26717189  0.59027911     0.28400
H807        H  0.71032954  0.20786456  0.63063799     0.18900
H808        H  0.77322360  0.37607007  0.61011213     0.19000
C809        C  0.83111119  0.18621684  0.68315966    -0.06900
C810        C  0.85366605  0.21460935  0.67397275    -0.18000
C811        C  0.88388126  0.19089241  0.67224632     0.10300
C812        C  0.89228830  0.13881426  0.68042142    -0.06800
C813        C  0.86961426  0.11050668  0.68962255    -0.18000
C814        C  0.83925448  0.13374909  0.69115396     0.10400
S815        S  0.90970056  0.22698157  0.65860957    -0.33000
S816        S  0.81242287  0.09548706  0.70393728    -0.33000
H817        H  0.79680822  0.14683757  0.70903012     0.28400
H818        H  0.92224556  0.17358298  0.65296802     0.28400
H819        H  0.84721967  0.25376569  0.66747160     0.18900
H820        H  0.87585598  0.07118605  0.69609531     0.19000
C821        C  0.73649875  0.22181463  0.72916492    -0.06900
C822        C  0.71229033  0.18867195  0.73603201    -0.18000
C823        C  0.70815673  0.18752376  0.75190765     0.10300
C824        C  0.72927480  0.21883574  0.76128916    -0.06800
C825        C  0.75325067  0.25244774  0.75441422    -0.18000
C826        C  0.75740536  0.25360063  0.73855735     0.10400
S827        S  0.67449173  0.14776091  0.75938565    -0.33000
S828        S  0.79097426  0.29390518  0.73117654    -0.33000
H829        H  0.79807467  0.25322977  0.71952494     0.28400
H830        H  0.66849751  0.18749265  0.77138773     0.28400
H831        H  0.69567304  0.16542304  0.72896059     0.18900
H832        H  0.76986763  0.27573816  0.76147100     0.19000
C833        C  0.48679407  0.30751615  0.63429717    -0.06900
C834        C  0.48772533  0.24772918  0.62968203    -0.18000
C835        C  0.48640038  0.23159717  0.61429025     0.10300
C836        C  0.48554968  0.27606044  0.60286114    -0.06800
C837        C  0.48519844  0.33586549  0.60746168    -0.18000
C838        C  0.48513143  0.35194850  0.62287536     0.10400
S839        S  0.48424604  0.15360559  0.61023292    -0.33000
S840        S  0.48137842  0.42973589  0.62701147    -0.33000
H841        H  0.45638597  0.42149070  0.63752051     0.28400
H842        H  0.45890482  0.16007323  0.60013090     0.28400
H843        H  0.48874417  0.21265567  0.63816837     0.18900
H844        H  0.48440467  0.37094413  0.59897090     0.19000
C845        C  0.58007466  0.30145712  0.68318635    -0.06900
C846        C  0.60033293  0.34437980  0.67668240    -0.18000
C847        C  0.63298601  0.33769783  0.67694068     0.10300
C848        C  0.64603795  0.28622204  0.68350086    -0.06800
C849        C  0.62594624  0.24356302  0.69012831    -0.18000
C850        C  0.59331434  0.25107707  0.69033149     0.10400
S851        S  0.65652984  0.39398999  0.66771646    -0.33000
S852        S  0.57035484  0.19594839  0.70039667    -0.33000
H853        H  0.55148329  0.23773641  0.70813749     0.28400
H854        H  0.67145285  0.40973623  0.68135149     0.28400
H855        H  0.59072521  0.38346035  0.67116017     0.18900
H856        H  0.63581733  0.20421966  0.69542645     0.19000
C857        C  0.48970144  0.38553402  0.85389707    -0.06900
C858        C  0.46889771  0.35408123  0.86350567    -0.18000
C859        C  0.46548891  0.36843835  0.87898911     0.10300
C860        C  0.48336603  0.41514008  0.88515351    -0.06800
C861        C  0.50431423  0.44623506  0.87564992    -0.18000
C862        C  0.50821968  0.43123353  0.86026258     0.10400
S863        S  0.43705720  0.32699142  0.89016763    -0.33000
S864        S  0.53864194  0.46997389  0.84970087    -0.33000
H865        H  0.54858261  0.41998012  0.84139966     0.28400
H866        H  0.42829333  0.37424783  0.89971148     0.28400
H867        H  0.45433227  0.31949453  0.85882517     0.18900
H868        H  0.51887592  0.48064701  0.88043043     0.19000
C869        C  0.64015360  0.25430079  0.81014558    -0.06900
C870        C  0.61889523  0.23242738  0.79947250    -0.18000
C871        C  0.58944682  0.25896477  0.79744689     0.10300
C872        C  0.58034939  0.30769348  0.80657143    -0.06800
C873        C  0.60156278  0.33011716  0.81716355    -0.18000
C874        C  0.63116158  0.30369900  0.81917100     0.10400
S875        S  0.56488915  0.22987319  0.78261698    -0.33000
S876        S  0.65550064  0.33323100  0.83402003    -0.33000
H877        H  0.66804083  0.27803684  0.83848609     0.28400
H878        H  0.55043931  0.28428774  0.77897471     0.28400
H879        H  0.62570642  0.19576672  0.79220691     0.18900
H880        H  0.59444061  0.36649146  0.82445432     0.19000
C881        C  0.48488602  0.34919928  0.76025716    -0.06900
C882        C  0.50431987  0.38854469  0.75190688    -0.18000
C883        C  0.50467192  0.38985168  0.73592454     0.10300
C884        C  0.48461463  0.35179702  0.72785122    -0.06800
C885        C  0.46501131  0.31273027  0.73619434    -0.18000
C886        C  0.46464386  0.31145268  0.75218699     0.10400
S887        S  0.53263043  0.43850282  0.72664727    -0.33000
S888        S  0.43667743  0.26286131  0.76148017    -0.33000
H889        H  0.42659576  0.30521539  0.77221522     0.28400
H890        H  0.54331722  0.39566561  0.71617630     0.28400
H891        H  0.52011419  0.41769186  0.75787740     0.18900
H892        H  0.44930444  0.28348644  0.73020109     0.19000
C893        C  0.23391934  0.00736199  0.63095385    -0.06900
C894        C  0.25814474  0.98489188  0.62172899    -0.18000
C895        C  0.26222105  0.00475573  0.60667954     0.10300
C896        C  0.24070018  0.04624460  0.60036756    -0.06800
C897        C  0.21640116  0.06873206  0.60965714    -0.18000
C898        C  0.21285985  0.04984167  0.62486439     0.10400
S899        S  0.29674416  0.97851359  0.59654377    -0.33000
S900        S  0.18229764  0.57682818  0.63520775    -0.33000
H901        H  0.17742437  0.52733990  0.64479403     0.28400
H902        H  0.30243313  0.03234009  0.58877653     0.28400
H903        H  0.27519029  0.95443728  0.62657085     0.18900
H904        H  0.19959956  0.09995536  0.60495187     0.19000
C905        C  0.07687996  0.03451627  0.68256466    -0.06900
C906        C  0.09752088  0.07629901  0.68873819    -0.18000
C907        C  0.13006295  0.06823819  0.68813434     0.10300
C908        C  0.14263468  0.01768509  0.68085060    -0.06800
C909        C  0.12186698  0.97521300  0.67497452    -0.18000
C910        C  0.08928982  0.98328879  0.67561784     0.10400
S911        S  0.15379088  0.12306328  0.69738315    -0.33000
S912        S  0.06521203  0.92875369  0.66644701    -0.33000
H913        H  0.04607584  0.97062496  0.65895745     0.28400
H914        H  0.17275647  0.08101832  0.70491871     0.28400
H915        H  0.08819323  0.11559586  0.69421695     0.18900
H916        H  0.13126823  0.43187161  0.66653190     0.19000
C917        C  0.33069772  0.42901412  0.67529962    -0.06900
C918        C  0.35159628  0.45891771  0.68476546    -0.18000
C919        C  0.38214805  0.43771618  0.68700976     0.10300
C920        C  0.39247735  0.38598451  0.67938102    -0.06800
C921        C  0.37179845  0.35638744  0.66977908    -0.18000
C922        C  0.34128679  0.37778267  0.66744654     0.10400
S923        S  0.40627381  0.47701215  0.70036701    -0.33000
S924        S  0.31769675  0.33927030  0.65372523    -0.33000
H925        H  0.30258593  0.39056833  0.64820154     0.28400
H926        H  0.42157249  0.42619004  0.70606523     0.28400
H927        H  0.34363384  0.49751340  0.69104460     0.18900
H928        H  0.37990279  0.31776972  0.66354274     0.19000
C929        C  0.23316633  0.42726011  0.85014038    -0.06900
C930        C  0.24036169  0.36874790  0.85460766    -0.18000
C931        C  0.23793965  0.34978932  0.86981577     0.10300
C932        C  0.22902234  0.39059501  0.88129030    -0.06800
C933        C  0.22207591  0.44947188  0.87678804    -0.18000
C934        C  0.22403535  0.46804743  0.86148419     0.10400
S935        S  0.24562887  0.27245157  0.87345358    -0.33000
S936        S  0.21261742  0.54305976  0.85709060    -0.33000
H937        H  0.24248877  0.55782230  0.85110087     0.28400
H938        H  0.21652978  0.26344906  0.88097435     0.28400
H939        H  0.24728373  0.33663193  0.84606221     0.18900
H940        H  0.21499533  0.48179420  0.88523824     0.19000
C941        C  0.32766679  0.41561110  0.80257324    -0.06900
C942        C  0.33854355  0.37043002  0.81219106    -0.18000
C943        C  0.37072028  0.36244410  0.81467589     0.10300
C944        C  0.39290198  0.39896211  0.80687837    -0.06800
C945        C  0.38194013  0.44390017  0.79713353    -0.18000
C946        C  0.34968914  0.45233129  0.79481558     0.10400
S947        S  0.38159795  0.30734214  0.82871123    -0.33000
S948        S  0.33820679  0.50927472  0.78138299    -0.33000
H949        H  0.31122114  0.47982151  0.77625773     0.28400
H950        H  0.40637575  0.34071283  0.83476537     0.28400
H951        H  0.32178528  0.34326846  0.81849894     0.18900
H952        H  0.39860526  0.47134293  0.79085739     0.19000
C953        C  0.14079993  0.50911335  0.80459953    -0.06900
C954        C  0.12055866  0.98582420  0.81491368    -0.18000
C955        C  0.08993724  0.00736291  0.81705645     0.10300
C956        C  0.07958221  0.05762689  0.80865131    -0.06800
C957        C  0.10090292  0.08660632  0.79882259    -0.18000
C958        C  0.13168088  0.06530339  0.79680116     0.10400
S959        S  0.06580987  0.97020656  0.83125001    -0.33000
S960        S  0.15486533  0.59614779  0.78204848    -0.33000
H961        H  0.17093438  0.54475154  0.77728951     0.28400
H962        H  0.05041770  0.02202345  0.83620803     0.28400
H963        H  0.12834778  0.94781246  0.82153236     0.18900
H964        H  0.09313519  0.12441684  0.79212804     0.19000
C965        C  0.23582792  0.46852724  0.75645306    -0.06900
C966        C  0.23457620  0.41409538  0.74866084    -0.18000
C967        C  0.23447656  0.41115512  0.73271948     0.10300
C968        C  0.23615306  0.46392040  0.72397259    -0.06800
C969        C  0.23734329  0.51838702  0.73176754    -0.18000
C970        C  0.23745607  0.52130439  0.74771797     0.10400
S971        S  0.23262411  0.33846949  0.72446699    -0.33000
S972        S  0.23916171  0.59390279  0.75602210    -0.33000
H973        H  0.26808389  0.58225473  0.76315942     0.28400
H974        H  0.20374974  0.35022821  0.71730050     0.28400
H975        H  0.23351074  0.37279084  0.75501890     0.18900
H976        H  0.23833756  0.55969832  0.72540974     0.19000
C977        C  0.24268813  0.13437557  0.38141157    -0.06900
C978        C  0.22041887  0.10465003  0.37269152    -0.18000
C979        C  0.21426940  0.12222539  0.35763219     0.10300
C980        C  0.23190003  0.16886779  0.35075608    -0.06800
C981        C  0.25385628  0.19905150  0.35960296    -0.18000
C982        C  0.25932846  0.18257765  0.37479295     0.10400
S983        S  0.18212449  0.08600159  0.34823592    -0.33000
S984        S  0.28819685  0.22462371  0.38503455    -0.33000
H985        H  0.29696461  0.17892661  0.39508867     0.28400
H986        H  0.17214650  0.13693963  0.34024406     0.28400
H987        H  0.20644945  0.06969577  0.37792573     0.18900
H988        H  0.26762253  0.23459025  0.35452332     0.19000
C989        C  0.23972915  0.25501819  0.13145347    -0.06900
C990        C  0.23872111  0.31506046  0.12686188    -0.18000
C991        C  0.23950082  0.33197295  0.11146690     0.10300
C992        C  0.23949754  0.28801257  0.10007894    -0.06800
C993        C  0.24047194  0.22795229  0.10469362    -0.18000
C994        C  0.24147258  0.21116960  0.12008444     0.10400
S995        S  0.24204684  0.41015898  0.10734469    -0.33000
S996        S  0.24668990  0.13346995  0.12425655    -0.33000
H997        H  0.27057650  0.14282337  0.13497674     0.28400
H998        H  0.26722187  0.40362138  0.09686690     0.28400
H999        H  0.23791099  0.34968047  0.13534834     0.18900
H1000       H  0.24109589  0.19323031  0.09623586     0.19000
C1001       C  0.23605482  0.21013740  0.22483438    -0.06900
C1002       C  0.23054609  0.26338413  0.23274040    -0.18000
C1003       C  0.23075313  0.26577319  0.24867646     0.10300
C1004       C  0.23529477  0.21320606  0.25721885    -0.06800
C1005       C  0.24078569  0.15987971  0.24929049    -0.18000
C1006       C  0.24188575  0.15798746  0.23332476     0.10400
S1007       S  0.22428815  0.33704910  0.25723549    -0.33000
S1008       S  0.25249577  0.08849046  0.22463684    -0.33000
H1009       H  0.27384198  0.11400128  0.21408121     0.28400
H1010       H  0.25413223  0.33748984  0.26404448     0.28400
H1011       H  0.22619695  0.30405002  0.22644671     0.18900
H1012       H  0.24509929  0.11919573  0.25557887     0.19000
C1013       C  0.49091206  0.15782185  0.35211483    -0.06900
C1014       C  0.48463319  0.21681463  0.35638721    -0.18000
C1015       C  0.48736096  0.23572518  0.37151123     0.10300
C1016       C  0.49552936  0.19439092  0.38304745    -0.06800
C1017       C  0.50149470  0.13517080  0.37871767    -0.18000
C1018       C  0.49985994  0.11686824  0.36351469     0.10400
S1019       S  0.48086103  0.31336972  0.37502120    -0.33000
S1020       S  0.51112698  0.04153149  0.35943295    -0.33000
H1021       H  0.53036156  0.05686515  0.34681071     0.28400
H1022       H  0.50932217  0.32016508  0.38287878     0.28400
H1023       H  0.47801740  0.24912498  0.34778318     0.18900
H1024       H  0.50801188  0.10239726  0.38721367     0.19000
C1025       C  0.39282575  0.15545810  0.30618335    -0.06900
C1026       C  0.38010887  0.19867219  0.29645290    -0.18000
C1027       C  0.34752157  0.20393493  0.29463148     0.10300
C1028       C  0.32697026  0.16579972  0.30289326    -0.06800
C1029       C  0.33957283  0.12259508  0.31257235    -0.18000
C1030       C  0.37205799  0.11772118  0.31455792     0.10400
S1031       S  0.33367175  0.25861330  0.28112010    -0.33000
S1032       S  0.38511006  0.06459670  0.32865984    -0.33000
H1033       H  0.40939161  0.10056308  0.33418421     0.28400
H1034       H  0.30737130  0.22590590  0.27648378     0.28400
H1035       H  0.39564283  0.22703812  0.28977489     0.18900
H1036       H  0.32392322  0.09449170  0.31927257     0.19000
C1037       C  0.47879522  0.99741679  0.10334527    -0.06900
C1038       C  0.50188811  0.97205111  0.11268796    -0.18000
C1039       C  0.50497457  0.98933780  0.12794437     0.10300
C1040       C  0.48453438  0.03298839  0.13408341    -0.06800
C1041       C  0.46105920  0.05740320  0.12487868    -0.18000
C1042       C  0.45752607  0.03927972  0.10975041     0.10400
S1043       S  0.53606936  0.95534551  0.13884414    -0.33000
S1044       S  0.42433611  0.06900293  0.09950394    -0.33000
H1045       H  0.41892646  0.01735531  0.09103518     0.28400
H1046       H  0.54125816  0.00402031  0.14837341     0.28400
H1047       H  0.51981641  0.42966252  0.10905855     0.18900
H1048       H  0.44448392  0.08898896  0.12971300     0.19000
C1049       C  0.32978566  0.16762746  0.17827630    -0.06900
C1050       C  0.33738447  0.11561951  0.17019141    -0.18000
C1051       C  0.36779336  0.09161718  0.17033373     0.10300
C1052       C  0.39117711  0.11953459  0.17894779    -0.06800
C1053       C  0.38360422  0.17116438  0.18708355    -0.18000
C1054       C  0.35322117  0.19488295  0.18706348     0.10400
S1055       S  0.37558518  0.02755066  0.15868335    -0.33000
S1056       S  0.34569101  0.25767701  0.19918120    -0.33000
H1057       H  0.31722428  0.23509808  0.20518289     0.28400
H1058       H  0.40573271  0.04572690  0.15378501     0.28400
H1059       H  0.31965308  0.09410961  0.16339921     0.18900
H1060       H  0.40147196  0.19265474  0.19380515     0.19000
C1061       C  0.48491547  0.09526059  0.22672726    -0.06900
C1062       C  0.49102304  0.04421448  0.23560653    -0.18000
C1063       C  0.49278428  0.04629643  0.25154694     0.10300
C1064       C  0.48724970  0.10038022  0.25912610    -0.06800
C1065       C  0.48146340  0.15160648  0.25024889    -0.18000
C1066       C  0.48010293  0.14969376  0.23428003     0.10400
S1067       S  0.50413472  0.97915509  0.26133346    -0.33000
S1068       S  0.47081961  0.21779974  0.22441370    -0.33000
H1069       H  0.44861594  0.19165434  0.21478289     0.28400
H1070       H  0.52573370  0.00744649  0.27089794     0.28400
H1071       H  0.49547087  0.00221745  0.23005339     0.18900
H1072       H  0.47719724  0.19366057  0.25580544     0.19000
C1073       C  0.98655633  0.38218695  0.35420706    -0.06900
C1074       C  0.99986761  0.34030368  0.36405964    -0.18000
C1075       C  0.00538752  0.35338905  0.37938189     0.10300
C1076       C  0.99638083  0.40960943  0.38536197    -0.06800
C1077       C  0.98248219  0.45105500  0.37545617    -0.18000
C1078       C  0.97724070  0.43792977  0.36010049     0.10400
S1079       S  0.02535099  0.29663401  0.39021562    -0.33000
S1080       S  0.95735736  0.49353093  0.34882395    -0.33000
H1081       H  0.94055376  0.45299313  0.33995974     0.28400
H1082       H  0.04746657  0.33592248  0.39626014     0.28400
H1083       H  0.00751804  0.29781700  0.35959533     0.18900
H1084       H  0.97477832  0.49371997  0.37977224     0.19000
C1085       C  0.07787743  0.29501504  0.30846254    -0.06900
C1086       C  0.09874129  0.31909250  0.29760933    -0.18000
C1087       C  0.12882407  0.29515660  0.29546093     0.10300
C1088       C  0.13867479  0.24634922  0.30447408    -0.06800
C1089       C  0.11789256  0.22213714  0.31533735    -0.18000
C1090       C  0.08788299  0.24657460  0.31763625     0.10400
S1091       S  0.15322991  0.32786803  0.28069411    -0.33000
S1092       S  0.06437525  0.21641329  0.33312159    -0.33000
H1093       H  0.05046860  0.27084586  0.33718686     0.28400
H1094       H  0.16874393  0.27488213  0.27674900     0.28400
H1095       H  0.09117525  0.35542592  0.29034443     0.18900
H1096       H  0.12569480  0.18612434  0.32264874     0.19000
C1097       C  0.97935756  0.28703893  0.13516073    -0.06900
C1098       C  0.96681725  0.23194007  0.13070809    -0.18000
C1099       C  0.96655710  0.21414428  0.11542850     0.10300
C1100       C  0.97963428  0.25145324  0.10407943    -0.06800
C1101       C  0.99171654  0.30673608  0.10835537    -0.18000
C1102       C  0.99158569  0.32507222  0.12361050     0.10400
S1103       S  0.94813986  0.14444609  0.11115051    -0.33000
S1104       S  0.00826210  0.39653140  0.12742072    -0.33000
H1105       H  0.98031149  0.41812566  0.13419493     0.28400
H1106       H  0.93447456  0.16392223  0.09743011     0.28400
H1107       H  0.95676180  0.20210547  0.13919984     0.18900
H1108       H  0.00160446  0.33603993  0.09967967     0.19000
C1109       C  0.07783231  0.27812688  0.18025961    -0.06900
C1110       C  0.09669030  0.31656820  0.17131140    -0.18000
C1111       C  0.12946496  0.31115034  0.17090892     0.10300
C1112       C  0.14392913  0.26583951  0.17946557    -0.06800
C1113       C  0.12511496  0.22666435  0.18814079    -0.18000
C1114       C  0.09240953  0.23270092  0.18880238     0.10400
S1115       S  0.15132589  0.35988084  0.15836988    -0.33000
S1116       S  0.07102543  0.18265108  0.20122258    -0.33000
H1117       H  0.05203915  0.22723974  0.20774539     0.28400
H1118       H  0.16901822  0.38389173  0.17028109     0.28400
H1119       H  0.08580437  0.35119891  0.16451950     0.18900
H1120       H  0.13609656  0.19138330  0.19467498     0.19000
C1121       C  0.98513043  0.33070311  0.26116448    -0.06900
C1122       C  0.97245562  0.37834698  0.25276513    -0.18000
C1123       C  0.97208844  0.37822882  0.23678169     0.10300
C1124       C  0.98556328  0.33019131  0.22878709    -0.06800
C1125       C  0.99814629  0.28232953  0.23717916    -0.18000
C1126       C  0.99839571  0.28234428  0.25320186     0.10400
S1127       S  0.95224417  0.43875450  0.22735874    -0.33000
S1128       S  0.01742810  0.22105561  0.26271283    -0.33000
H1129       H  0.03160274  0.25573844  0.27398816     0.28400
H1130       H  0.93745456  0.40279296  0.21655390     0.28400
H1131       H  0.96198799  0.41552996  0.25873674     0.18900
H1132       H  0.00850314  0.24508470  0.23119073     0.19000
C1133       C  0.73668763  0.41044947  0.38685434    -0.06900
C1134       C  0.75274843  0.45889450  0.38034747    -0.18000
C1135       C  0.75216068  0.47022390  0.36460904     0.10300
C1136       C  0.73426256  0.43330401  0.35505571    -0.06800
C1137       C  0.71754200  0.38567993  0.36175255    -0.18000
C1138       C  0.71832521  0.37427107  0.37745799     0.10400
S1139       S  0.77612898  0.53032219  0.35751282    -0.33000
S1140       S  0.69411503  0.31489448  0.38487334    -0.33000
H1141       H  0.68510901  0.34431267  0.39834723     0.28400
H1142       H  0.79043466  0.49624111  0.34593330     0.28400
H1143       H  0.76669747  0.48718398  0.38754985     0.18900
H1144       H  0.70323740  0.35735943  0.35473514     0.19000
C1145       C  0.82605400  0.40834626  0.30636829    -0.06900
C1146       C  0.83854321  0.37080865  0.31755112    -0.18000
C1147       C  0.87105214  0.36367397  0.31894866     0.10300
C1148       C  0.89166431  0.39294198  0.30854730    -0.06800
C1149       C  0.87915393  0.43093619  0.29743194    -0.18000
C1150       C  0.84659692  0.43867780  0.29617484     0.10400
S1151       S  0.88472910  0.31925571  0.33477907    -0.33000
S1152       S  0.83265932  0.48601203  0.28097157    -0.33000
H1153       H  0.80488537  0.45404167  0.27840312     0.28400
H1154       H  0.91183390  0.35319791  0.33734664     0.28400
H1155       H  0.82292044  0.34911565  0.32571971     0.18900
H1156       H  0.89474354  0.45288155  0.28929984     0.19000
C1157       C  0.64189412  0.01742556  0.30797821    -0.06900
C1158       C  0.63600618  0.07478433  0.31370134    -0.18000
C1159       C  0.60629884  0.10163061  0.31270074     0.10300
C1160       C  0.58127816  0.07032528  0.30615050    -0.06800
C1161       C  0.58707880  0.01302036  0.30049420    -0.18000
C1162       C  0.61690791  0.98675388  0.30110017     0.10400
S1163       S  0.60133722  0.17403487  0.32085292    -0.33000
S1164       S  0.62145267  0.91525000  0.29232971    -0.33000
H1165       H  0.64509141  0.41300061  0.28495510     0.28400
H1166       H  0.59233489  0.19997453  0.30690171     0.28400
H1167       H  0.65475525  0.09926342  0.31903600     0.18900
H1168       H  0.56814008  0.98845970  0.29532507     0.19000
C1169       C  0.73728171  0.00644730  0.13574768    -0.06900
C1170       C  0.74715576  0.96117546  0.12597198    -0.18000
C1171       C  0.75018938  0.97058208  0.11020902     0.10300
C1172       C  0.74175924  0.02642103  0.10368199    -0.06800
C1173       C  0.73182066  0.07170923  0.11355648    -0.18000
C1174       C  0.72939359  0.06245747  0.12936519     0.10400
S1175       S  0.76619041  0.90939117  0.09946974    -0.33000
S1176       S  0.71463809  0.12348481  0.14057124    -0.33000
H1177       H  0.69640043  0.08774714  0.15043244     0.28400
H1178       H  0.78958380  0.94412368  0.09230422     0.28400
H1179       H  0.75386786  0.91853884  0.13073244     0.18900
H1180       H  0.72507888  0.11451601  0.10893232     0.19000
C1181       C  0.64394521  0.02145534  0.18385905    -0.06900
C1182       C  0.63190244  0.05886540  0.17256046    -0.18000
C1183       C  0.59942267  0.06597574  0.17088115     0.10300
C1184       C  0.57860878  0.03585929  0.18101610    -0.06800
C1185       C  0.59076482  0.99889773  0.19245751    -0.18000
C1186       C  0.62331114  0.99141371  0.19399285     0.10400
S1187       S  0.58502912  0.11048429  0.15513209    -0.33000
S1188       S  0.63844023  0.94500892  0.20917368    -0.33000
H1189       H  0.60914834  0.92950503  0.21569654     0.28400
H1190       H  0.61450797  0.12904972  0.14941272     0.28400
H1191       H  0.64797750  0.08039054  0.16464156     0.18900
H1192       H  0.57474556  0.97694275  0.20035853     0.19000
C1193       C  0.82883195  0.41433468  0.18251093    -0.06900
C1194       C  0.83618906  0.36071895  0.17510890    -0.18000
C1195       C  0.86670867  0.33748315  0.17498161     0.10300
C1196       C  0.89068060  0.36775388  0.18263341    -0.06800
C1197       C  0.88350999  0.42138692  0.18999349    -0.18000
C1198       C  0.85291370  0.44446205  0.19024076     0.10400
S1199       S  0.87380762  0.27116213  0.16409757    -0.33000
S1200       S  0.84610774  0.51046908  0.20126617    -0.33000
H1201       H  0.81854038  0.48884651  0.20841120     0.28400
H1202       H  0.90264911  0.29039843  0.15775404     0.28400
H1203       H  0.81811776  0.33712311  0.16902220     0.18900
H1204       H  0.90183536  0.44503235  0.19589110     0.19000
C1205       C  0.73043090  0.45213507  0.22894624    -0.06900
C1206       C  0.74409314  0.40421595  0.23670106    -0.18000
C1207       C  0.74526755  0.40301665  0.25271444     0.10300
C1208       C  0.73234470  0.45081242  0.26113104    -0.06800
C1209       C  0.72267419  0.01118700  0.25377262    -0.18000
C1210       C  0.72077767  0.01216331  0.23785406     0.10400
S1211       S  0.76527450  0.34234403  0.26216007    -0.33000
S1212       S  0.70083966  0.07463060  0.22930010    -0.33000
H1213       H  0.68703245  0.04192510  0.21755299     0.28400
H1214       H  0.77171329  0.30874418  0.24901532     0.28400
H1215       H  0.75488567  0.36886332  0.23016245     0.18900
H1216       H  0.71289315  0.04783085  0.26023111     0.19000
O1217       O  0.72992428  0.92180758  0.20421140    -0.73700
O1218       O  0.73066681  0.94409977  0.15803878    -0.74700
O1219       O  0.77491876  0.90649081  0.18034829    -0.63300
O1220       O  0.68445331  0.43916919  0.18128770    -0.71700
O1221       O  0.69584074  0.53454144  0.18384560    -0.71300
O1222       O  0.78832131  0.48993857  0.18335146    -0.62500
O1223       O  0.74336616  0.52529201  0.16109740    -0.75000
O1224       O  0.74065688  0.50462544  0.20602395    -0.73800
Cu1225     Cu  0.72988661  0.92815732  0.18102019     1.04600
Cu1226     Cu  0.74260952  0.51689636  0.18364425     1.04300
C1227       C  0.73547542  0.96730503  0.21241658     0.92500
C1228       C  0.73708040  0.48242501  0.15229929     0.91600
C1229       C  0.79670725  0.94442174  0.18190588     0.83800
C1230       C  0.67568823  0.49266121  0.18299519     0.90100
O1231       O  0.69361612  0.51840455  0.30915067    -0.73700
O1232       O  0.78593243  0.98109184  0.30839614    -0.74700
O1233       O  0.74118939  0.00876618  0.28594072    -0.63300
O1234       O  0.74119094  0.99707072  0.33232346    -0.71700
O1235       O  0.72610263  0.90379498  0.33037212    -0.71300
O1236       O  0.72721576  0.91424930  0.28525654    -0.62500
O1237       O  0.77266496  0.88608685  0.30754621    -0.75000
O1238       O  0.68082637  0.93821641  0.30811511    -0.73800
Cu1239     Cu  0.74173118  0.00777828  0.30916180     1.04600
Cu1240     Cu  0.72607292  0.90731649  0.30781082     1.04300
C1241       C  0.67461908  0.99385951  0.30866446     0.92500
C1242       C  0.79365801  0.92673803  0.30762000     0.91600
C1243       C  0.73480801  0.96201191  0.27836133     0.83800
C1244       C  0.73421248  0.94723253  0.33861630     0.90100
O1245       O  0.02347986  0.75339064  0.18287481    -0.73700
O1246       O  0.93100210  0.79932250  0.18347924    -0.74700
O1247       O  0.97540193  0.76352651  0.16099184    -0.63300
O1248       O  0.97834927  0.78287963  0.20579340    -0.71700
O1249       O  0.99071529  0.87777813  0.20325834    -0.71300
O1250       O  0.98925919  0.85649375  0.15683778    -0.62500
O1251       O  0.94550902  0.89287133  0.17998942    -0.75000
O1252       O  0.03504636  0.84845242  0.17998418    -0.73800
Cu1253     Cu  0.97658590  0.77154362  0.18340207     1.04600
Cu1254     Cu  0.99056127  0.87223939  0.17990261     1.04300
C1255       C  0.04387017  0.79482840  0.18134220     0.92500
C1256       C  0.92403459  0.85426731  0.18173261     0.91600
C1257       C  0.98205217  0.80528611  0.15166031     0.83800
C1258       C  0.98463748  0.83255782  0.21178588     0.90100
O1259       O  0.99517598  0.91274391  0.32849392    -0.73700
O1260       O  0.99275334  0.88869338  0.28380961    -0.74700
O1261       O  0.94775533  0.92337770  0.30626934    -0.63300
O1262       O  0.03958779  0.87174770  0.30624035    -0.71700
O1263       O  0.02361149  0.77941239  0.31030410    -0.71300
O1264       O  0.93473182  0.82920046  0.31006180    -0.62500
O1265       O  0.97865521  0.79482596  0.28684885    -0.75000
O1266       O  0.98053645  0.81998514  0.33300419    -0.73800
Cu1267     Cu  0.99438741  0.90237497  0.30606514     1.04600
Cu1268     Cu  0.97890032  0.80256314  0.31017054     1.04300
C1269       C  0.98766647  0.87167769  0.33786920     0.92500
C1270       C  0.98556144  0.83896447  0.27809470     0.91600
C1271       C  0.92685792  0.88326998  0.30850041     0.83800
C1272       C  0.04571221  0.81660957  0.30838304     0.90100
O1273       O  0.52230574  0.48915835  0.18394617    -0.73700
O1274       O  0.42913874  0.53078648  0.18211039    -0.74700
O1275       O  0.47662723  0.49287582  0.16081185    -0.63300
O1276       O  0.47484692  0.52086507  0.20553236    -0.71700
O1277       O  0.48796017  0.61495978  0.20215007    -0.71300
O1278       O  0.48727589  0.58761972  0.15617801    -0.62500
O1279       O  0.44293133  0.62480904  0.17876406    -0.75000
O1280       O  0.53263565  0.58397875  0.17947407    -0.73800
Cu1281     Cu  0.47521261  0.50507216  0.18324816     1.04600
Cu1282     Cu  0.48805606  0.60609934  0.17899486     1.04300
C1283       C  0.54207668  0.53117330  0.18162466     0.92500
C1284       C  0.42174836  0.58555133  0.18029398     0.91600
C1285       C  0.48256121  0.53479400  0.15142243     0.83800
C1286       C  0.48139340  0.57128112  0.21108314     0.90100
O1287       O  0.43390288  0.57700125  0.30930837    -0.73700
O1288       O  0.52329044  0.53288693  0.30966586    -0.74700
O1289       O  0.48014936  0.57282602  0.33234530    -0.63300
O1290       O  0.47792984  0.54371558  0.28636381    -0.71700
O1291       O  0.49122259  0.63759348  0.28273384    -0.71300
O1292       O  0.49262131  0.66609156  0.32714648    -0.62500
O1293       O  0.53776313  0.62589527  0.30550414    -0.75000
O1294       O  0.44507699  0.67142271  0.30474410    -0.73800
Cu1295     Cu  0.47835321  0.55334949  0.30957433     1.04600
Cu1296     Cu  0.49212366  0.65354087  0.30487985     1.04300
C1297       C  0.42491678  0.63010457  0.30716052     0.92500
C1298       C  0.54482128  0.57122933  0.30771031     0.91600
C1299       C  0.48704489  0.62513779  0.33686008     0.83800
C1300       C  0.48452734  0.58710038  0.27731801     0.90100
O1301       O  0.22858681  0.66450407  0.19940110    -0.73700
O1302       O  0.23069442  0.68920729  0.15328500    -0.74700
O1303       O  0.27359520  0.64676535  0.17578387    -0.63300
O1304       O  0.18537378  0.69965903  0.17695294    -0.71700
O1305       O  0.19931725  0.79348006  0.17975795    -0.71300
O1306       O  0.29047095  0.73841818  0.17923788    -0.62500
O1307       O  0.24705227  0.78075367  0.15711162    -0.75000
O1308       O  0.24374580  0.75774133  0.20172602    -0.73800
Cu1309     Cu  0.22908418  0.67179359  0.17618608     1.04600
Cu1310     Cu  0.24573983  0.77084951  0.17951343     1.04300
C1311       C  0.23587800  0.70855595  0.20780886     0.92500
C1312       C  0.23910171  0.73999858  0.14799270     0.91600
C1313       C  0.29604650  0.68280620  0.17785118     0.83800
C1314       C  0.17796536  0.75378441  0.17868007     0.90100
O1315       O  0.19218259  0.76025156  0.30579630    -0.73700
O1316       O  0.28227876  0.71826425  0.30501494    -0.74700
O1317       O  0.23816865  0.74790210  0.28249478    -0.63300
O1318       O  0.23626025  0.72410674  0.32857392    -0.71700
O1319       O  0.22318007  0.63031133  0.32491357    -0.71300
O1320       O  0.22601756  0.65321318  0.28014849    -0.62500
O1321       O  0.27118210  0.62280728  0.30240383    -0.75000
O1322       O  0.17830292  0.66627388  0.30286614    -0.73800
Cu1323     Cu  0.23754408  0.74098163  0.30561818     1.04600
Cu1324     Cu  0.22415455  0.63986750  0.30248200     1.04300
C1325       C  0.17102387  0.72116192  0.30420171     0.92500
C1326       C  0.29122661  0.66484636  0.30347097     0.91600
C1327       C  0.23269812  0.70308460  0.27405528     0.83800
C1328       C  0.22978578  0.67234018  0.33390043     0.90100
O1329       O  0.22676045  0.90101976  0.82451113    -0.73700
O1330       O  0.22792013  0.92362476  0.77982726    -0.74700
O1331       O  0.27361588  0.89037818  0.80167984    -0.63300
O1332       O  0.18150474  0.93898986  0.80297481    -0.71700
O1333       O  0.19635341  0.03228339  0.80604107    -0.71300
O1334       O  0.28632677  0.98529391  0.80380018    -0.62500
O1335       O  0.24049849  0.01813863  0.78199353    -0.75000
O1336       O  0.24130978  0.99389911  0.82808458    -0.73800
Cu1337     Cu  0.22692011  0.91031677  0.80213489     1.04600
Cu1338     Cu  0.24159228  0.01074371  0.80510550     1.04300
C1339       C  0.23423359  0.94258212  0.83348922     0.92500
C1340       C  0.23427584  0.97346710  0.77363407     0.91600
C1341       C  0.29439423  0.93117346  0.80253448     0.83800
C1342       C  0.17471116  0.99400112  0.80456521     0.90100
O1343       O  0.23011299  0.94423227  0.65314105    -0.73700
O1344       O  0.23147468  0.92683915  0.69939536    -0.74700
O1345       O  0.18580952  0.95309079  0.67750428    -0.63300
O1346       O  0.27570867  0.91157590  0.67516419    -0.71700
O1347       O  0.28953234  0.00578591  0.67703330    -0.71300
O1348       O  0.19630946  0.54099889  0.67925238    -0.62500
O1349       O  0.24394440  0.02175047  0.70069923    -0.75000
O1350       O  0.24181244  0.53421929  0.65566897    -0.73800
Cu1351     Cu  0.23045194  0.93053985  0.67619120     1.04600
Cu1352     Cu  0.24366292  0.03206815  0.67836160     1.04300
C1353       C  0.23525383  0.99588219  0.64745473     0.92500
C1354       C  0.23696211  0.97311299  0.70732489     0.91600
C1355       C  0.17647934  0.49850464  0.67857328     0.83800
C1356       C  0.29698978  0.95090708  0.67568442     0.90100
O1357       O  0.49556200  0.92089418  0.82793892    -0.73700
O1358       O  0.49425430  0.89901523  0.78322438    -0.74700
O1359       O  0.44841418  0.93167490  0.80530920    -0.63300
O1360       O  0.54082410  0.88242020  0.80595316    -0.71700
O1361       O  0.52500007  0.78932813  0.80879758    -0.71300
O1362       O  0.43564605  0.83750707  0.80932578    -0.62500
O1363       O  0.47904094  0.80570695  0.78594795    -0.75000
O1364       O  0.48205018  0.82725272  0.83203189    -0.73800
Cu1365     Cu  0.49530351  0.91179792  0.80550446     1.04600
Cu1366     Cu  0.48000671  0.81166302  0.80916109     1.04300
C1367       C  0.48922955  0.87854195  0.83713021     0.92500
C1368       C  0.48601076  0.85015919  0.77734725     0.91600
C1369       C  0.42757664  0.89127378  0.80734280     0.83800
C1370       C  0.54704020  0.82695513  0.80722971     0.90100
O1371       O  0.43159758  0.81094080  0.68189851    -0.73700
O1372       O  0.52423692  0.76593668  0.68361257    -0.74700
O1373       O  0.47692730  0.79625096  0.70522387    -0.63300
O1374       O  0.47840556  0.77397198  0.66056614    -0.71700
O1375       O  0.49251441  0.86707195  0.65655108    -0.71300
O1376       O  0.48974006  0.89092327  0.70263682    -0.62500
O1377       O  0.53582532  0.86085141  0.68070970    -0.75000
O1378       O  0.44640734  0.90428126  0.67842347    -0.73800
Cu1379     Cu  0.47726495  0.78350113  0.68292908     1.04600
Cu1380     Cu  0.49147709  0.88410284  0.67944025     1.04300
C1381       C  0.42477585  0.86592583  0.68005560     0.92500
C1382       C  0.54468296  0.80747419  0.68255973     0.91600
C1383       C  0.48357477  0.84583486  0.71116491     0.83800
C1384       C  0.48598016  0.81557952  0.65136759     0.90100
O1385       O  0.79162142  0.75842963  0.68479001    -0.73700
O1386       O  0.69998678  0.80765784  0.68446266    -0.74700
O1387       O  0.74383690  0.77444020  0.70697853    -0.63300
O1388       O  0.74863433  0.79690355  0.66219574    -0.71700
O1389       O  0.73515280  0.70357056  0.65828168    -0.71300
O1390       O  0.72945546  0.68072077  0.70437366    -0.62500
O1391       O  0.68741867  0.71354071  0.68105932    -0.75000
O1392       O  0.77639729  0.66532615  0.68173732    -0.73800
Cu1393     Cu  0.74650261  0.78766688  0.68468065     1.04600
Cu1394     Cu  0.73161298  0.68752891  0.68121044     1.04300
C1395       C  0.79806313  0.70311456  0.68367719     0.92500
C1396       C  0.67920186  0.76729719  0.68285908     0.91600
C1397       C  0.73634387  0.72470757  0.71287726     0.83800
C1398       C  0.74307837  0.75474330  0.65306164     0.90100
O1399       O  0.72245223  0.62116628  0.82791718    -0.73700
O1400       O  0.72099233  0.65713857  0.78373133    -0.74700
O1401       O  0.76772672  0.61415534  0.80386469    -0.63300
O1402       O  0.67670027  0.67009321  0.80777746    -0.71700
O1403       O  0.69442534  0.75993054  0.81283514    -0.71300
O1404       O  0.78252042  0.70703001  0.80765324    -0.62500
O1405       O  0.73627525  0.74964056  0.78754373    -0.75000
O1406       O  0.74048031  0.71049931  0.83292689    -0.73800
Cu1407     Cu  0.72133389  0.63744561  0.80570466     1.04600
Cu1408     Cu  0.73891022  0.73496907  0.81045193     1.04300
C1409       C  0.73262069  0.65830611  0.83748416     0.92500
C1410       C  0.72798713  0.70820300  0.77850998     0.91600
C1411       C  0.78940498  0.65331801  0.80487079     0.83800
C1412       C  0.67152285  0.72485790  0.81078753     0.90100
O1413       O  0.99186665  0.62876653  0.70288474    -0.73700
O1414       O  0.99081465  0.60956284  0.65673951    -0.74700
O1415       O  0.94714100  0.64816743  0.67957961    -0.63300
O1416       O  0.03543836  0.59580547  0.67995127    -0.71700
O1417       O  0.02135004  0.50166795  0.68259287    -0.71300
O1418       O  0.93029849  0.55604080  0.68269626    -0.62500
O1419       O  0.97448922  0.51755870  0.66035559    -0.75000
O1420       O  0.97663724  0.53525563  0.70517278    -0.73800
Cu1421     Cu  0.99174640  0.62387659  0.67968406     1.04600
Cu1422     Cu  0.97506841  0.52441586  0.68281050     1.04300
C1423       C  0.98485608  0.58374489  0.71126307     0.92500
C1424       C  0.98291055  0.55922501  0.65132381     0.91600
C1425       C  0.92462478  0.61150846  0.68098986     0.83800
C1426       C  0.04272370  0.54132879  0.68118647     0.90100
O1427       O  0.99096683  0.63542643  0.78365064    -0.73700
O1428       O  0.98782059  0.65138308  0.82871514    -0.74700
O1429       O  0.03639921  0.62381039  0.80701358    -0.63300
O1430       O  0.94223600  0.65709514  0.80541245    -0.71700
O1431       O  0.93383745  0.56071710  0.80811845    -0.71300
O1432       O  0.02505362  0.52825937  0.80917805    -0.62500
O1433       O  0.97890815  0.55511398  0.83172246    -0.75000
O1434       O  0.98042411  0.53945035  0.78552816    -0.73800
Cu1435     Cu  0.98975198  0.64534455  0.80612117     1.04600
Cu1436     Cu  0.97927693  0.54256218  0.80871844     1.04300
C1437       C  0.98565177  0.58587130  0.77736045     0.92500
C1438       C  0.98268683  0.60679996  0.83737306     0.91600
C1439       C  0.04525260  0.56964256  0.80840203     0.83800
C1440       C  0.92324585  0.61319670  0.80671033     0.90100
O1441       O  0.73338579  0.89711904  0.53809495    -0.73700
O1442       O  0.73593203  0.86824535  0.58403011    -0.74700
O1443       O  0.77943259  0.90650090  0.56096689    -0.63300
O1444       O  0.68938755  0.86470305  0.56117984    -0.71700
O1445       O  0.70028038  0.77015000  0.55683624    -0.71300
O1446       O  0.79338416  0.81249983  0.55770516    -0.62500
O1447       O  0.74700420  0.77368588  0.57953799    -0.75000
O1448       O  0.74660406  0.80278773  0.53490406    -0.73800
Cu1449     Cu  0.73416265  0.88741558  0.56123771     1.04600
Cu1450     Cu  0.74736506  0.78646436  0.55712476     1.04300
C1451       C  0.73927616  0.85312783  0.52931766     0.92500
C1452       C  0.74112874  0.81534534  0.58886284     0.91600
C1453       C  0.80067518  0.86730311  0.55910032     0.83800
C1454       C  0.68020123  0.81189902  0.55906199     0.90100
O1455       O  0.70034898  0.81615022  0.43256404    -0.73700
O1456       O  0.79109539  0.85219893  0.43175419    -0.74700
O1457       O  0.74699545  0.82575618  0.45510957    -0.63300
O1458       O  0.74377573  0.84780223  0.40914182    -0.71700
O1459       O  0.73410412  0.94347292  0.41264458    -0.71300
O1460       O  0.73564667  0.92124643  0.45759768    -0.62500
O1461       O  0.78186928  0.94764280  0.43502334    -0.75000
O1462       O  0.68784629  0.91125451  0.43498830    -0.73800
Cu1463     Cu  0.74590782  0.83225175  0.43200789     1.04600
Cu1464     Cu  0.73443863  0.93432747  0.43516421     1.04300
C1465       C  0.67970388  0.85676651  0.43391347     0.92500
C1466       C  0.80139296  0.90455557  0.43352501     0.91600
C1467       C  0.74213415  0.87108097  0.46355066     0.83800
C1468       C  0.73838749  0.89978953  0.40374794     0.90100
O1469       O  0.03856712  0.01734720  0.42904484    -0.73700
O1470       O  0.94797699  0.98148180  0.43036794    -0.74700
O1471       O  0.99255838  0.01107006  0.45274804    -0.63300
O1472       O  0.99411327  0.98101604  0.40686152    -0.71700
O1473       O  0.00368642  0.88670396  0.41192416    -0.71300
O1474       O  0.00501524  0.91658143  0.45633693    -0.62500
O1475       O  0.95731477  0.88690522  0.43541737    -0.75000
O1476       O  0.05138290  0.92293678  0.43262631    -0.73800
Cu1477     Cu  0.99303793  0.00101911  0.42959351     1.04600
Cu1478     Cu  0.00483120  0.89997073  0.43421047     1.04300
C1479       C  0.05940510  0.97724985  0.43061289     0.92500
C1480       C  0.93781349  0.92951164  0.43309467     0.91600
C1481       C  0.99816016  0.96723283  0.46174822     0.83800
C1482       C  0.99860975  0.92773207  0.40223681     0.90100
O1483       O  0.93522368  0.00865723  0.55750095    -0.73700
O1484       O  0.03010406  0.54556556  0.55390221    -0.74700
O1485       O  0.98114429  0.02314762  0.53374594    -0.63300
O1486       O  0.98377552  0.54131346  0.57754619    -0.71700
O1487       O  0.99467347  0.95047324  0.58237216    -0.71300
O1488       O  0.99497292  0.92882399  0.53631719    -0.62500
O1489       O  0.03973794  0.95833426  0.55836767    -0.75000
O1490       O  0.94980178  0.91492832  0.56058397    -0.73800
Cu1491     Cu  0.98093609  0.03560653  0.55607406     1.04600
Cu1492     Cu  0.99512887  0.93480349  0.55952196     1.04300
C1493       C  0.92820691  0.95395281  0.55963420     0.92500
C1494       C  0.04997606  0.50294653  0.55514465     0.91600
C1495       C  0.98908754  0.97395854  0.52780238     0.83800
C1496       C  0.98851870  0.00208825  0.58764558     0.90100
O1497       O  0.20980661  0.52046186  0.42594001    -0.73700
O1498       O  0.29924366  0.56774401  0.42556469    -0.74700
O1499       O  0.25497336  0.53847190  0.44899353    -0.63300
O1500       O  0.25274302  0.55672744  0.40251173    -0.71700
O1501       O  0.23950871  0.65100886  0.40595364    -0.71300
O1502       O  0.24078616  0.63282884  0.45070975    -0.62500
O1503       O  0.28653072  0.66241424  0.42830271    -0.75000
O1504       O  0.19446597  0.61391744  0.42841052    -0.73800
Cu1505     Cu  0.25472762  0.54250522  0.42562654     1.04600
Cu1506     Cu  0.23981575  0.64327790  0.42838794     1.04300
C1507       C  0.18791252  0.55857505  0.42753174     0.92500
C1508       C  0.30743379  0.62153552  0.42693375     0.91600
C1509       C  0.24780159  0.58387594  0.45710159     0.83800
C1510       C  0.24582206  0.60812843  0.39710678     0.90100
O1511       O  0.20542934  0.50014006  0.55090797    -0.73700
O1512       O  0.29676663  0.55130052  0.55322229    -0.74700
O1513       O  0.25032102  0.51128149  0.57415253    -0.63300
O1514       O  0.25238542  0.53438302  0.52947365    -0.71700
O1515       O  0.23752948  0.62814700  0.53164246    -0.71300
O1516       O  0.23443437  0.60375781  0.57789211    -0.62500
O1517       O  0.28001746  0.64360970  0.55622133    -0.75000
O1518       O  0.19127236  0.59427780  0.55350035    -0.73800
Cu1519     Cu  0.25179428  0.52111043  0.55180298     1.04600
Cu1520     Cu  0.23531218  0.62080155  0.55489866     1.04300
C1521       C  0.18400524  0.54006534  0.55198043     0.92500
C1522       C  0.30247660  0.60627233  0.55551543     0.91600
C1523       C  0.24241006  0.55272007  0.58318082     0.83800
C1524       C  0.24508899  0.58369714  0.52330247     0.90100
O1525       O  0.49493257  0.70309356  0.58149782    -0.73700
O1526       O  0.49591403  0.68367333  0.53523675    -0.74700
O1527       O  0.53972894  0.71566893  0.55753286    -0.63300
O1528       O  0.45133109  0.66356279  0.55902413    -0.71700
O1529       O  0.43415379  0.75565061  0.55572477    -0.71300
O1530       O  0.52543070  0.81002154  0.55530069    -0.62500
O1531       O  0.48107602  0.77719896  0.53309720    -0.75000
O1532       O  0.47785906  0.79470828  0.57786475    -0.73800
Cu1533     Cu  0.49591456  0.68818959  0.55846936     1.04600
Cu1534     Cu  0.47898937  0.78759671  0.55544304     1.04300
C1535       C  0.48649814  0.75350070  0.58690375     0.92500
C1536       C  0.48920359  0.72869840  0.52684558     0.91600
C1537       C  0.54689297  0.77000776  0.55605066     0.83800
C1538       C  0.42878518  0.69995306  0.55707992     0.90100
O1539       O  0.50828566  0.65655023  0.40963271    -0.73700
O1540       O  0.50502181  0.68025302  0.45425963    -0.74700
O1541       O  0.46164539  0.63977968  0.43251315    -0.63300
O1542       O  0.55114531  0.70257500  0.43142143    -0.71700
O1543       O  0.53205857  0.79269150  0.42714954    -0.71300
O1544       O  0.44481413  0.73243363  0.42983841    -0.62500
O1545       O  0.48807602  0.77232899  0.45157003    -0.75000
O1546       O  0.48846304  0.74582417  0.40558370    -0.73800
Cu1547     Cu  0.50728427  0.66674234  0.43205132     1.04600
Cu1548     Cu  0.48787230  0.76412843  0.42837221     1.04300
C1549       C  0.49780493  0.69562292  0.40042086     0.92500
C1550       C  0.49579874  0.72865906  0.46022387     0.91600
C1551       C  0.43911232  0.67753140  0.43157857     0.83800
C1552       C  0.55543877  0.75819812  0.42918005     0.90100
O1553       O  0.21890037  0.88862884  0.95179764    -0.73700
O1554       O  0.21935680  0.91544125  0.90707576    -0.74700
O1555       O  0.17383821  0.87099660  0.92861723    -0.63300
O1556       O  0.26503909  0.92662518  0.93039647    -0.71700
O1557       O  0.27956526  0.83329680  0.92681654    -0.71300
O1558       O  0.19184071  0.77998800  0.92465124    -0.62500
O1559       O  0.23640695  0.82436839  0.90288857    -0.75000
O1560       O  0.23520318  0.79605140  0.94877870    -0.73800
Cu1561     Cu  0.21859489  0.90370206  0.92955073     1.04600
Cu1562     Cu  0.23618038  0.80524462  0.92563061     1.04300
C1563       C  0.22757919  0.83928861  0.95750775     0.92500
C1564       C  0.22845797  0.87557938  0.89777728     0.91600
C1565       C  0.16887741  0.81567146  0.92639632     0.83800
C1566       C  0.28668668  0.88710692  0.92906266     0.90100
O1567       O  0.23072308  0.85373641  0.07812247    -0.73700
O1568       O  0.22725880  0.87777920  0.03204283    -0.74700
O1569       O  0.18431736  0.84563128  0.05549157    -0.63300
O1570       O  0.27347703  0.89254038  0.05476597    -0.71700
O1571       O  0.28900510  0.79922359  0.05187749    -0.71300
O1572       O  0.19675826  0.75125149  0.05170963    -0.62500
O1573       O  0.24222416  0.78416571  0.02934117    -0.75000
O1574       O  0.24433451  0.76048408  0.07405969    -0.73800
Cu1575     Cu  0.22852855  0.87070621  0.05523026     1.04600
Cu1576     Cu  0.24362264  0.77048731  0.05163260     1.04300
C1577       C  0.23793763  0.80218976  0.08330991     0.92500
C1578       C  0.23393082  0.83348914  0.02348316     0.91600
C1579       C  0.17605788  0.79216314  0.05361516     0.83800
C1580       C  0.29537056  0.85443910  0.05318991     0.90100
O1581       O  0.72858329  0.63841040  0.91150121    -0.73700
O1582       O  0.72620374  0.61102425  0.95603870    -0.74700
O1583       O  0.77463455  0.64107057  0.93464135    -0.63300
O1584       O  0.68118050  0.60256402  0.93267904    -0.71700
O1585       O  0.69436777  0.50823295  0.92943226    -0.71300
O1586       O  0.78502645  0.54605007  0.93056847    -0.62500
O1587       O  0.73906234  0.51633438  0.95313576    -0.75000
O1588       O  0.74024764  0.54444939  0.90704770    -0.73800
Cu1589     Cu  0.72721651  0.62654342  0.93384044     1.04600
Cu1590     Cu  0.74000283  0.52538382  0.92991743     1.04300
C1591       C  0.73543081  0.59744972  0.90214118     0.92500
C1592       C  0.73209537  0.56030320  0.96176161     0.91600
C1593       C  0.79447611  0.59875308  0.93257458     0.83800
C1594       C  0.67338516  0.54826306  0.93086309     0.90100
O1595       O  0.79220559  0.52539765  0.05627367    -0.73700
O1596       O  0.69969857  0.47815324  0.05618293    -0.74700
O1597       O  0.74587955  0.50854964  0.03361928    -0.63300
O1598       O  0.74692672  0.48888436  0.07842475    -0.71700
O1599       O  0.73411430  0.58296337  0.08190703    -0.71300
O1600       O  0.73123036  0.60264724  0.03564148    -0.62500
O1601       O  0.68773016  0.57306235  0.05916131    -0.75000
O1602       O  0.77683430  0.61853383  0.05865299    -0.73800
Cu1603     Cu  0.74666242  0.49693799  0.05599377     1.04600
Cu1604     Cu  0.73199409  0.59756271  0.05890565     1.04300
C1605       C  0.79889057  0.58044015  0.05765977     0.92500
C1606       C  0.67918079  0.51941336  0.05809026     0.91600
C1607       C  0.73858265  0.55776276  0.02741635     0.83800
C1608       C  0.74131108  0.53179431  0.08737362     0.90100
O1609       O  0.48760836  0.90900566  0.95466440    -0.73700
O1610       O  0.48756420  0.89171839  0.90977861    -0.74700
O1611       O  0.53404577  0.92297822  0.93131884    -0.63300
O1612       O  0.44111624  0.88390420  0.93289845    -0.71700
O1613       O  0.43071646  0.97938896  0.93006032    -0.71300
O1614       O  0.52129394  0.01769860  0.92928016    -0.62500
O1615       O  0.47714133  0.98747784  0.90656447    -0.75000
O1616       O  0.47561162  0.00453543  0.95282749    -0.73800
Cu1617     Cu  0.48806139  0.89862412  0.93225568     1.04600
Cu1618     Cu  0.47581695  0.00064534  0.92958619     1.04300
C1619       C  0.48112189  0.95823708  0.96096183     0.92500
C1620       C  0.48214698  0.93578265  0.90105328     0.91600
C1621       C  0.54225599  0.97743877  0.93023335     0.83800
C1622       C  0.42116149  0.92625269  0.93159282     0.90100
O1623       O  0.48675311  0.93462593  0.08137754    -0.73700
O1624       O  0.48897080  0.91549906  0.03507302    -0.74700
O1625       O  0.53335418  0.94046246  0.05786465    -0.63300
O1626       O  0.44294415  0.90325267  0.05863677    -0.71700
O1627       O  0.42974606  0.99758178  0.05535185    -0.71300
O1628       O  0.52561051  0.52687508  0.05621452    -0.62500
O1629       O  0.47825122  0.01146187  0.03287111    -0.75000
O1630       O  0.47670528  0.51860791  0.07858587    -0.73800
Cu1631     Cu  0.48835699  0.92014291  0.05835010     1.04600
Cu1632     Cu  0.47822881  0.51335005  0.05609780     1.04300
C1633       C  0.47983404  0.98593413  0.08670871     0.92500
C1634       C  0.48454454  0.96181396  0.02676529     0.91600
C1635       C  0.54505431  0.48327731  0.05686271     0.83800
C1636       C  0.42193528  0.94309582  0.05722204     0.90100
O1637       O  0.93525080  0.69060059  0.93185697    -0.73700
O1638       O  0.02369220  0.74383913  0.92996679    -0.74700
O1639       O  0.98020280  0.70418826  0.90764188    -0.63300
O1640       O  0.97945868  0.72372883  0.95383577    -0.71700
O1641       O  0.99617900  0.63092263  0.95596805    -0.71300
O1642       O  0.99584602  0.61152439  0.91114922    -0.62500
O1643       O  0.04135233  0.65153037  0.93226730    -0.75000
O1644       O  0.94996607  0.59666145  0.93466840    -0.73800
Cu1645     Cu  0.97914213  0.71884216  0.93068337     1.04600
Cu1646     Cu  0.99645155  0.61940820  0.93358556     1.04300
C1647       C  0.92832244  0.63632111  0.93383789     0.92500
C1648       C  0.04646532  0.70735380  0.93101646     0.91600
C1649       C  0.98827361  0.65362539  0.90217806     0.83800
C1650       C  0.98731049  0.67909981  0.96213833     0.90100
O1651       O  0.93050829  0.73407002  0.05630205    -0.73700
O1652       O  0.02111381  0.78892678  0.05458001    -0.74700
O1653       O  0.97716172  0.74907648  0.03324393    -0.63300
O1654       O  0.97407270  0.77954996  0.07770080    -0.71700
O1655       O  0.99040854  0.68818623  0.08266143    -0.71300
O1656       O  0.99326543  0.65659685  0.03695249    -0.62500
O1657       O  0.03609565  0.69590831  0.05880659    -0.75000
O1658       O  0.94761792  0.64281130  0.06071768    -0.73800
Cu1659     Cu  0.97506088  0.76606068  0.05533841     1.04600
Cu1660     Cu  0.99229930  0.66759537  0.05999587     1.04300
C1661       C  0.92496290  0.67894675  0.05860707     0.92500
C1662       C  0.04281054  0.74992704  0.05623083     0.91600
C1663       C  0.98650578  0.69967164  0.02791775     0.83800
C1664       C  0.98198226  0.73973149  0.08731100     0.90100
C1665       C  0.98915905  0.69343657  0.01114367    -0.06900
C1666       C  0.98169184  0.63915964  0.00448728    -0.18000
C1667       C  0.98026444  0.63331057  0.98860390     0.10300
C1668       C  0.98669998  0.68295932  0.97900185    -0.06800
C1669       C  0.99473503  0.73686974  0.98569415    -0.18000
C1670       C  0.99685910  0.74225344  0.00152932     0.10400
S1671       S  0.96881384  0.56178160  0.98153077    -0.33000
S1672       S  0.01151221  0.81159178  0.00862730    -0.33000
H1673       H  0.02938940  0.78546947  0.02034122     0.28400
H1674       H  0.94955645  0.58421449  0.96988756     0.28400
H1675       H  0.97576591  0.60147040  0.01172219     0.18900
H1676       H  0.00068757  0.77466466  0.97849755     0.19000
C1677       C  0.48041850  0.96035515  0.97780627    -0.06900
C1678       C  0.49673203  0.00550018  0.98516119    -0.18000
C1679       C  0.50002497  0.00502818  0.00105357     0.10300
C1680       C  0.48598934  0.95918224  0.00993005    -0.06800
C1681       C  0.46982282  0.91391442  0.00255956    -0.18000
C1682       C  0.46655802  0.91438253  0.98667604     0.10400
S1683       S  0.52919423  0.55197799  0.00989151    -0.33000
S1684       S  0.44299217  0.85667984  0.97849838    -0.33000
H1685       H  0.43008684  0.89276034  0.96696805     0.28400
H1686       H  0.53797071  0.51729512  0.02251879     0.28400
H1687       H  0.50806710  0.04005814  0.97844008     0.18900
H1688       H  0.45841652  0.87940785  0.00926779     0.19000
C1689       C  0.64509095  0.50687143  0.05883701    -0.06900
C1690       C  0.63275174  0.46252060  0.04958630    -0.18000
C1691       C  0.60019500  0.45505900  0.04830016     0.10300
C1692       C  0.57932200  0.49292858  0.05645275    -0.06800
C1693       C  0.59167675  0.53663537  0.06585183    -0.18000
C1694       C  0.62414523  0.54291233  0.06747770     0.10400
S1695       S  0.58709017  0.39746721  0.03569969    -0.33000
S1696       S  0.63716008  0.59526957  0.08152036    -0.33000
H1697       H  0.66289732  0.56069840  0.08635186     0.28400
H1698       H  0.55953634  0.42650992  0.03100907     0.28400
H1699       H  0.64851555  0.43484993  0.04288809     0.18900
H1700       H  0.57590263  0.56414087  0.07259652     0.19000
C1701       C  0.89252052  0.65497163  0.05847107    -0.06900
C1702       C  0.88834107  0.59587961  0.05386443    -0.18000
C1703       C  0.85858512  0.56935814  0.05383579     0.10300
C1704       C  0.83182707  0.60265387  0.05832317    -0.06800
C1705       C  0.83626394  0.66150040  0.06319490    -0.18000
C1706       C  0.86596099  0.68782886  0.06324896     0.10400
S1707       S  0.85659819  0.49365813  0.04763584    -0.33000
S1708       S  0.86851969  0.76232435  0.07030320    -0.33000
H1709       H  0.87671732  0.78568963  0.05584827     0.28400
H1710       H  0.84373312  0.47365958  0.06164057     0.28400
H1711       H  0.90851374  0.56986672  0.05019416     0.18900
H1712       H  0.81634928  0.68787435  0.06701023     0.19000
C1713       C  0.82877699  0.60924435  0.93256360    -0.06900
C1714       C  0.84165599  0.64393710  0.94409178    -0.18000
C1715       C  0.87430383  0.65001386  0.94541598     0.10300
C1716       C  0.89470780  0.62107715  0.93493229    -0.06800
C1717       C  0.88189226  0.58577861  0.92353265    -0.18000
C1718       C  0.84925326  0.58038552  0.92206596     0.10400
S1719       S  0.88844047  0.69497799  0.96082589    -0.33000
S1720       S  0.83522372  0.53952814  0.90589300    -0.33000
H1721       H  0.80906723  0.57653791  0.90326805     0.28400
H1722       H  0.91768212  0.66644922  0.96221870     0.28400
H1723       H  0.82622662  0.66531079  0.95234275     0.18900
H1724       H  0.89734104  0.56524945  0.91514014     0.19000
C1725       C  0.64009212  0.52975709  0.93070777    -0.06900
C1726       C  0.63171028  0.47805604  0.93882507    -0.18000
C1727       C  0.60065176  0.45754355  0.93926258     0.10300
C1728       C  0.57585343  0.99607043  0.93005229    -0.06800
C1729       C  0.58583996  0.53977093  0.92275672    -0.18000
C1730       C  0.61684221  0.56053989  0.92245114     0.10400
S1731       S  0.59638970  0.88065594  0.93855716    -0.33000
S1732       S  0.62540782  0.62472707  0.91075215    -0.33000
H1733       H  0.65487501  0.60411449  0.90548360     0.28400
H1734       H  0.57505207  0.89308484  0.95055034     0.28400
H1735       H  0.64941622  0.45429428  0.94528502     0.18900
H1736       H  0.56829974  0.56376320  0.91625501     0.19000
C1737       C  0.73174987  0.55463051  0.97855252    -0.06900
C1738       C  0.75797944  0.52949213  0.98568235    -0.18000
C1739       C  0.76161281  0.53299333  0.00151483     0.10300
C1740       C  0.73808650  0.56089850  0.01057718    -0.06800
C1741       C  0.71171429  0.58561025  0.00345317    -0.18000
C1742       C  0.70812445  0.58221103  0.98761172     0.10400
S1743       S  0.79766280  0.50387271  0.00934284    -0.33000
S1744       S  0.67228642  0.61193873  0.97970144    -0.33000
H1745       H  0.67067488  0.57142695  0.96760272     0.28400
H1746       H  0.79993524  0.54615398  0.02100106     0.28400
H1747       H  0.77657874  0.50975709  0.97879920     0.18900
H1748       H  0.69319090  0.60564102  0.01032606     0.19000
C1749       C  0.07620416  0.76543516  0.05486400    -0.06900
C1750       C  0.09474485  0.73478583  0.04409838    -0.18000
C1751       C  0.12740316  0.74241015  0.04330006     0.10300
C1752       C  0.14204718  0.77967113  0.05392427    -0.06800
C1753       C  0.12337008  0.81001458  0.06473043    -0.18000
C1754       C  0.09069040  0.80370010  0.06521780     0.10400
S1755       S  0.14866604  0.70542729  0.02816327    -0.33000
S1756       S  0.06901175  0.84155501  0.08004855    -0.33000
H1757       H  0.04686626  0.86642464  0.07005348     0.28400
H1758       H  0.16944799  0.75250183  0.02507466     0.28400
H1759       H  0.08359984  0.70504740  0.03616585     0.18900
H1760       H  0.13437022  0.83884536  0.07292527     0.19000
C1761       C  0.38867579  0.92395871  0.05732061    -0.06900
C1762       C  0.36780739  0.94968752  0.04689267    -0.18000
C1763       C  0.33774855  0.92600367  0.04477981     0.10300
C1764       C  0.32809838  0.87564596  0.05335239    -0.06800
C1765       C  0.34874940  0.85041833  0.06389949    -0.18000
C1766       C  0.37851556  0.87468660  0.06622908     0.10400
S1767       S  0.31324605  0.96058120  0.03054194    -0.33000
S1768       S  0.40168650  0.84260391  0.08135086    -0.33000
H1769       H  0.41555483  0.89637608  0.08567375     0.28400
H1770       H  0.29798628  0.90823836  0.02619864     0.28400
H1771       H  0.37541659  0.98688664  0.03986799     0.18900
H1772       H  0.34104079  0.81328174  0.07093119     0.19000
C1773       C  0.32053649  0.90079501  0.93037717    -0.06900
C1774       C  0.34010142  0.85612286  0.93639811    -0.18000
C1775       C  0.37274927  0.86224060  0.93677137     0.10300
C1776       C  0.38668800  0.91542817  0.93148547    -0.06800
C1777       C  0.36691784  0.96095142  0.92590622    -0.18000
C1778       C  0.33427715  0.95384807  0.92503188     0.10400
S1779       S  0.39482946  0.80054467  0.94426751    -0.33000
S1780       S  0.31197973  0.01242307  0.91611618    -0.33000
H1781       H  0.29371802  0.97413214  0.90725517     0.28400
H1782       H  0.40960122  0.78912611  0.93010251     0.28400
H1783       H  0.32987945  0.81512895  0.94063902     0.18900
H1784       H  0.37699520  0.00196579  0.92163370     0.19000
C1785       C  0.07862888  0.73168337  0.93072263    -0.06900
C1786       C  0.09950434  0.71442850  0.91907910    -0.18000
C1787       C  0.12821936  0.74373271  0.91678713     0.10300
C1788       C  0.13671628  0.79077284  0.92654908    -0.06800
C1789       C  0.11573559  0.80796113  0.93818210    -0.18000
C1790       C  0.08707967  0.77857150  0.94047588     0.10400
S1791       S  0.15231243  0.72077685  0.90076639    -0.33000
S1792       S  0.06280497  0.80121697  0.95646449    -0.33000
H1793       H  0.05026131  0.74467538  0.95947683     0.28400
H1794       H  0.16427179  0.77762388  0.89753579     0.28400
H1795       H  0.09278571  0.67965124  0.91129138     0.18900
H1796       H  0.12233732  0.84270083  0.94600162     0.19000
C1797       C  0.22884478  0.83435288  0.97436852    -0.06900
C1798       C  0.20692137  0.86725875  0.98305401    -0.18000
C1799       C  0.20801437  0.86846182  0.99901857     0.10300
C1800       C  0.23211158  0.83730966  0.00664399    -0.06800
C1801       C  0.25428993  0.80507123  0.99795973    -0.18000
C1802       C  0.25291515  0.80319643  0.98201311     0.10400
S1803       S  0.17722798  0.90844274  0.00891056    -0.33000
S1804       S  0.28396618  0.76445913  0.97204594    -0.33000
H1805       H  0.26326559  0.72260926  0.96591761     0.28400
H1806       H  0.17234357  0.86462830  0.02019819     0.28400
H1807       H  0.18841157  0.89172236  0.97735294     0.09300
H1808       H  0.27305010  0.78126981  0.00365316     0.19000
C1809       C  0.49100897  0.72708088  0.50980157    -0.06900
C1810       C  0.48536445  0.78024284  0.50162036    -0.18000
C1811       C  0.48673087  0.78312030  0.48558229     0.10300
C1812       C  0.49381726  0.73122065  0.47726099    -0.06800
C1813       C  0.49910818  0.67809726  0.48546663    -0.18000
C1814       C  0.49810152  0.67547329  0.50140740     0.10400
S1815       S  0.47964132  0.85355645  0.47620196    -0.33000
S1816       S  0.50594258  0.60445620  0.51009361    -0.33000
H1817       H  0.53241630  0.62527464  0.51790370     0.28400
H1818       H  0.47466869  0.88758201  0.48941039     0.28400
H1819       H  0.47995425  0.82032650  0.50782913     0.18900
H1820       H  0.50434501  0.63743738  0.47943699     0.19000
C1821       C  0.33511954  0.62811006  0.55704040    -0.06900
C1822       C  0.35932694  0.60013287  0.54878587    -0.18000
C1823       C  0.38975652  0.62361889  0.54826718     0.10300
C1824       C  0.39650716  0.67622095  0.55632498    -0.06800
C1825       C  0.37250277  0.70367127  0.56479137    -0.18000
C1826       C  0.34222138  0.67954787  0.56555674     0.10400
S1827       S  0.41846496  0.58579959  0.53647526    -0.33000
S1828       S  0.31441172  0.71460955  0.57837790    -0.33000
H1829       H  0.30071878  0.66115754  0.58346365     0.28400
H1830       H  0.43302150  0.63780210  0.53100662     0.28400
H1831       H  0.35426050  0.56095462  0.54217533     0.18900
H1832       H  0.37771804  0.74280818  0.57139497     0.19000
C1833       C  0.34139612  0.63545740  0.42763523    -0.06900
C1834       C  0.35082406  0.68136751  0.43723230    -0.18000
C1835       C  0.38266497  0.69288158  0.43964447     0.10300
C1836       C  0.40593180  0.65898478  0.43195941    -0.06800
C1837       C  0.39670149  0.61234726  0.42261217    -0.18000
C1838       C  0.36483136  0.60052499  0.42022485     0.10400
S1839       S  0.39210307  0.75015559  0.45309692    -0.33000
S1840       S  0.35608974  0.54219131  0.40697241    -0.33000
H1841       H  0.33009020  0.57095403  0.40044510     0.28400
H1842       H  0.42010563  0.72342190  0.45819180     0.28400
H1843       H  0.33326522  0.70726459  0.44333951     0.18900
H1844       H  0.41442170  0.58695427  0.41646446     0.19000
C1845       C  0.24479679  0.58654078  0.50636728    -0.06900
C1846       C  0.23611834  0.53498645  0.49849626    -0.18000
C1847       C  0.23667062  0.53256978  0.48252499     0.10300
C1848       C  0.24735907  0.58198454  0.47402163    -0.06800
C1849       C  0.25607798  0.63355649  0.48187575    -0.18000
C1850       C  0.25454015  0.63659911  0.49783981     0.10400
S1851       S  0.22175437  0.46654352  0.47376412    -0.33000
S1852       S  0.26705111  0.70414068  0.50664762    -0.33000
H1853       H  0.23722801  0.71519514  0.51322534     0.28400
H1854       H  0.20469625  0.49708233  0.46246488     0.28400
H1855       H  0.22810297  0.49643287  0.50485237     0.18900
H1856       H  0.26415019  0.67205554  0.47551374     0.19000
C1857       C  0.08426009  0.51267884  0.55364458    -0.06900
C1858       C  0.10435058  0.47576048  0.56218182    -0.18000
C1859       C  0.13705595  0.48121058  0.56116843     0.10300
C1860       C  0.15029473  0.52530427  0.55164037    -0.06800
C1861       C  0.13032528  0.56193770  0.54299575    -0.18000
C1862       C  0.09760432  0.55524245  0.54361567     0.10400
S1863       S  0.16052238  0.43441776  0.57331315    -0.33000
S1864       S  0.07450883  0.60051708  0.53089267    -0.33000
H1865       H  0.05428293  0.55429730  0.52669752     0.28400
H1866       H  0.17748024  0.40969200  0.56100596     0.28400
H1867       H  0.09450707  0.44270694  0.56988096     0.18900
H1868       H  0.14036149  0.59584862  0.53560906     0.19000
C1869       C  0.09338433  0.48995104  0.42975702    -0.06900
C1870       C  0.10130992  0.54062260  0.43809934    -0.18000
C1871       C  0.13181506  0.56364470  0.43776293     0.10300
C1872       C  0.15508842  0.53675801  0.42846489    -0.06800
C1873       C  0.14726497  0.48542522  0.42027929    -0.18000
C1874       C  0.11671612  0.46217255  0.42071196     0.10400
S1875       S  0.13978107  0.62517765  0.45010987    -0.33000
S1876       S  0.10853481  0.39960709  0.40876962    -0.33000
H1877       H  0.07989860  0.92272065  0.40538423     0.28400
H1878       H  0.16872081  0.60232530  0.45522156     0.28400
H1879       H  0.08358115  0.56204604  0.44518273     0.18900
H1880       H  0.16489987  0.46405485  0.41313755     0.19000
C1881       C  0.99194705  0.97131858  0.51093300    -0.06900
C1882       C  0.97183383  0.00727047  0.50213948    -0.18000
C1883       C  0.97360132  0.00804368  0.48615452     0.10300
C1884       C  0.99640634  0.97283097  0.47859661    -0.06800
C1885       C  0.01690782  0.93775038  0.48741142    -0.18000
C1886       C  0.01530845  0.93736392  0.50338848     0.10400
S1887       S  0.94491257  0.05218681  0.47615235    -0.33000
S1888       S  0.04493715  0.89548712  0.51340039    -0.33000
H1889       H  0.05069919  0.93995816  0.52418408     0.28400
H1890       H  0.93761541  0.00774222  0.46559538     0.28400
H1891       H  0.95400186  0.03408741  0.50775987     0.18900
H1892       H  0.03477503  0.91099309  0.48179451     0.19000
C1893       C  0.83624072  0.91289026  0.43385633    -0.06900
C1894       C  0.85554447  0.86235397  0.43181322    -0.18000
C1895       C  0.88841326  0.86587677  0.43137573     0.10300
C1896       C  0.90310855  0.92104607  0.43354228    -0.06800
C1897       C  0.88393727  0.97148995  0.43574235    -0.18000
C1898       C  0.85104993  0.96824326  0.43589310     0.10400
S1899       S  0.90981903  0.79884598  0.42708603    -0.33000
S1900       S  0.82990354  0.03678767  0.43851041    -0.33000
H1901       H  0.81355435  0.01605200  0.45153433     0.28400
H1902       H  0.92879901  0.82566451  0.41571043     0.28400
H1903       H  0.84505300  0.81929321  0.43009482     0.18900
H1904       H  0.89463598  0.01441535  0.43743239     0.19000
C1905       C  0.64645946  0.83828667  0.43411225    -0.06900
C1906       C  0.62654197  0.85815031  0.42248713    -0.18000
C1907       C  0.59726122  0.83125575  0.42015530     0.10300
C1908       C  0.58736421  0.78399243  0.42982718    -0.06800
C1909       C  0.60718947  0.76499695  0.44157557    -0.18000
C1910       C  0.63627982  0.79193787  0.44391630     0.10400
S1911       S  0.57465675  0.85661498  0.40405009    -0.33000
S1912       S  0.65932310  0.76576234  0.45979001    -0.33000
H1913       H  0.67382849  0.82048416  0.46257623     0.28400
H1914       H  0.56209957  0.80074043  0.40062061     0.28400
H1915       H  0.63461055  0.89240893  0.41462261     0.18900
H1916       H  0.59954936  0.72999368  0.44931725     0.19000
C1917       C  0.64596104  0.80062168  0.55875834    -0.06900
C1918       C  0.63438704  0.76002241  0.54821204    -0.18000
C1919       C  0.60202629  0.75235051  0.54638361     0.10300
C1920       C  0.58053766  0.78496840  0.55552318    -0.06800
C1921       C  0.59196399  0.82546093  0.56609123    -0.18000
C1922       C  0.62443329  0.83331948  0.56793682     0.10400
S1923       S  0.58958846  0.70112685  0.53194492    -0.33000
S1924       S  0.63789161  0.88174724  0.58286401    -0.33000
H1925       H  0.60811050  0.90250734  0.58762557     0.28400
H1926       H  0.56176384  0.73182270  0.52828026     0.28400
H1927       H  0.65060920  0.73532020  0.54102482     0.18900
H1928       H  0.57539770  0.84869198  0.57341175     0.19000
C1929       C  0.89506133  0.93420312  0.56054759    -0.06900
C1930       C  0.87332527  0.95910649  0.55043715    -0.18000
C1931       C  0.84294084  0.93604673  0.54926565     0.10300
C1932       C  0.83367802  0.88726295  0.55852247    -0.06800
C1933       C  0.85519842  0.86278991  0.56878924    -0.18000
C1934       C  0.88548379  0.88639508  0.57012094     0.10400
S1935       S  0.81742906  0.96929795  0.53527188    -0.33000
S1936       S  0.91004117  0.85600029  0.58492387    -0.33000
H1937       H  0.92448056  0.91020206  0.58837999     0.28400
H1938       H  0.80271761  0.91587268  0.53140978     0.28400
H1939       H  0.88043572  0.99523114  0.54293745     0.18900
H1940       H  0.84788359  0.82692737  0.57633064     0.19000
C1941       C  0.73806552  0.85921243  0.51252778    -0.06900
C1942       C  0.75232562  0.90827497  0.50544694    -0.18000
C1943       C  0.75558360  0.91158326  0.48952951     0.10300
C1944       C  0.74318720  0.86602295  0.48036091    -0.06800
C1945       C  0.72893980  0.81703933  0.48744760    -0.18000
C1946       C  0.72586556  0.81351305  0.50333998     0.10400
S1947       S  0.77768889  0.97299174  0.48169970    -0.33000
S1948       S  0.70459295  0.75095392  0.51111980    -0.33000
H1949       H  0.69024727  0.78301145  0.52304810     0.28400
H1950       H  0.79187965  0.93991595  0.46990175     0.28400
H1951       H  0.76222289  0.94293767  0.51234623     0.18900
H1952       H  0.71904366  0.78232676  0.48055300     0.19000
C1953       C  0.98185219  0.61617058  0.85403211    -0.06900
C1954       C  0.00227629  0.58297851  0.86315294    -0.18000
C1955       C  0.00599898  0.59584114  0.87868295     0.10300
C1956       C  0.98789732  0.64206375  0.88546385    -0.06800
C1957       C  0.96740399  0.67513997  0.87623665    -0.18000
C1958       C  0.96412771  0.66264143  0.86069486     0.10400
S1959       S  0.03574074  0.55550071  0.88920503    -0.33000
S1960       S  0.93629225  0.70667605  0.85006084    -0.33000
H1961       H  0.92785408  0.66159456  0.83992530     0.28400
H1962       H  0.04398337  0.51490816  0.87770506     0.28400
H1963       H  0.01642330  0.54860396  0.85788883     0.18900
H1964       H  0.95317337  0.71013494  0.88123432     0.19000
C1965       C  0.98448955  0.54613715  0.63467403    -0.06900
C1966       C  0.98405832  0.48610306  0.63030969    -0.18000
C1967       C  0.98449181  0.97229038  0.61583152     0.10300
C1968       C  0.98938583  0.51266382  0.60346845    -0.06800
C1969       C  0.99015026  0.57268948  0.60782058    -0.18000
C1970       C  0.98753343  0.58985081  0.62310811     0.10400
S1971       S  0.97927160  0.89475899  0.61198702    -0.33000
S1972       S  0.98724898  0.66821066  0.62679653    -0.33000
H1973       H  0.96032599  0.66511672  0.63619512     0.28400
H1974       H  0.00952419  0.88872684  0.60542942     0.28400
H1975       H  0.97887189  0.95573793  0.63968820     0.18900
H1976       H  0.99229016  0.60714821  0.59920201     0.19000
C1977       C  0.98570264  0.58606841  0.72815592    -0.06900
C1978       C  0.96384185  0.55137633  0.73643537    -0.18000
C1979       C  0.96321480  0.55037035  0.75239996     0.10300
C1980       C  0.98541282  0.58378072  0.76048866    -0.06800
C1981       C  0.00727697  0.61861125  0.75225059    -0.18000
C1982       C  0.00797981  0.61946401  0.73624840     0.10400
S1983       S  0.93231059  0.50844665  0.76168918    -0.33000
S1984       S  0.03895896  0.66110964  0.72694792    -0.33000
H1985       H  0.04575738  0.61733185  0.71602793     0.28400
H1986       H  0.92548464  0.55174333  0.77274049     0.28400
H1987       H  0.94647023  0.52576381  0.73040865     0.18900
H1988       H  0.02451280  0.64432413  0.75834150     0.19000
C1989       C  0.73519145  0.64048436  0.85388211    -0.06900
C1990       C  0.74104622  0.68451125  0.86467865    -0.18000
C1991       C  0.74307298  0.67117137  0.88025799     0.10300
C1992       C  0.73740522  0.61251339  0.88558892    -0.06800
C1993       C  0.73237688  0.56808391  0.87482618    -0.18000
C1994       C  0.73197756  0.58085892  0.85914096     0.10400
S1995       S  0.75452782  0.73107956  0.89249515    -0.33000
S1996       S  0.72829366  0.51811100  0.84668316    -0.33000
H1997       H  0.75433039  0.53449618  0.83749374     0.28400
H1998       H  0.77564349  0.69618901  0.90101698     0.28400
H1999       H  0.74455289  0.72996827  0.86097337     0.18900
H2000       H  0.72875307  0.52278431  0.87864097     0.19000
C2001       C  0.82303340  0.63792985  0.80336514    -0.06900
C2002       C  0.83490584  0.59153927  0.81229680    -0.18000
C2003       C  0.86737197  0.58380685  0.81405486     0.10300
C2004       C  0.88872913  0.62210621  0.80625028    -0.06800
C2005       C  0.87671029  0.66743657  0.79695333    -0.18000
C2006       C  0.84426341  0.67541316  0.79533214     0.10400
S2007       S  0.87965066  0.52717945  0.82738516    -0.33000
S2008       S  0.83136399  0.73363735  0.78260656    -0.33000
H2009       H  0.80379670  0.70447108  0.77814324     0.28400
H2010       H  0.90377144  0.56127548  0.83375462     0.28400
H2011       H  0.81879277  0.56364690  0.81879016     0.18900
H2012       H  0.89269045  0.69616690  0.79063981     0.19000
C2013       C  0.74482990  0.76705946  0.63639919    -0.06900
C2014       C  0.72375091  0.73844379  0.62672475    -0.18000
C2015       C  0.72136996  0.75481252  0.61131201     0.10300
C2016       C  0.74044809  0.80092345  0.60531167    -0.06800
C2017       C  0.76194233  0.82873636  0.61484140    -0.18000
C2018       C  0.76491441  0.81142256  0.63014676     0.10400
S2019       S  0.69278714  0.71647403  0.60000093    -0.33000
S2020       S  0.79616604  0.84519872  0.64075511    -0.33000
H2021       H  0.80370776  0.79352998  0.64906850     0.28400
H2022       H  0.68509636  0.76554431  0.59077408     0.28400
H2023       H  0.70817785  0.70458505  0.63130660     0.18900
H2024       H  0.77755173  0.86232960  0.61014343     0.19000
C2025       C  0.83070856  0.68165948  0.68421806    -0.06900
C2026       C  0.85353165  0.71191358  0.67562619    -0.18000
C2027       C  0.88374451  0.68846120  0.67371288     0.10300
C2028       C  0.89200295  0.63455043  0.68112011    -0.06800
C2029       C  0.86913892  0.60466432  0.68987717    -0.18000
C2030       C  0.83873532  0.62771897  0.69158465     0.10400
S2031       S  0.90958881  0.72713335  0.66061138    -0.33000
S2032       S  0.81167270  0.58712462  0.70375209    -0.33000
H2033       H  0.79605290  0.63754303  0.70944701     0.28400
H2034       H  0.92030242  0.67449321  0.65381734     0.28400
H2035       H  0.84726827  0.75233406  0.66962247     0.18900
H2036       H  0.87519963  0.56399715  0.69580765     0.19000
C2037       C  0.73511878  0.71950874  0.72968889    -0.06900
C2038       C  0.71023220  0.68817653  0.73653965    -0.18000
C2039       C  0.70603676  0.68734845  0.75240624     0.10300
C2040       C  0.72771418  0.71720074  0.76179399    -0.06800
C2041       C  0.75228795  0.74933999  0.75492947    -0.18000
C2042       C  0.75655732  0.75000885  0.73906977     0.10400
S2043       S  0.67172533  0.64958810  0.75988673    -0.33000
S2044       S  0.79101100  0.78749360  0.73165652    -0.33000
H2045       H  0.79707897  0.74642378  0.71996589     0.28400
H2046       H  0.66670933  0.68895006  0.77206783     0.28400
H2047       H  0.69323816  0.66595565  0.72945847     0.18900
H2048       H  0.76931241  0.77151771  0.76199375     0.19000
C2049       C  0.48726455  0.80161536  0.63476693    -0.06900
C2050       C  0.48959995  0.74150846  0.63052398    -0.18000
C2051       C  0.48899935  0.72386490  0.61522620     0.10300
C2052       C  0.48720155  0.76721822  0.60354421    -0.06800
C2053       C  0.48593529  0.82742954  0.60780403    -0.18000
C2054       C  0.48534662  0.84490970  0.62310052     0.10400
S2055       S  0.48922513  0.64541260  0.61161954    -0.33000
S2056       S  0.48055337  0.92286353  0.62677745    -0.33000
H2057       H  0.45569081  0.91447151  0.63734836     0.28400
H2058       H  0.46326344  0.64814484  0.60179610     0.28400
H2059       H  0.49120153  0.70735823  0.63923632     0.18900
H2060       H  0.48471665  0.86177418  0.59913146     0.19000
C2061       C  0.57903041  0.79594458  0.68321078    -0.06900
C2062       C  0.59944853  0.84060489  0.67765569    -0.18000
C2063       C  0.63211493  0.83381316  0.67785547     0.10300
C2064       C  0.64515567  0.78054524  0.68341179    -0.06800
C2065       C  0.62488538  0.73595919  0.68899995    -0.18000
C2066       C  0.59222699  0.74330589  0.68919976     0.10400
S2067       S  0.65563823  0.89291233  0.66990733    -0.33000
S2068       S  0.56919916  0.68452870  0.69768169    -0.33000
H2069       H  0.55115265  0.72298904  0.70689215     0.28400
H2070       H  0.66990735  0.90503770  0.68395860     0.28400
H2071       H  0.58998740  0.88138135  0.67295205     0.18900
H2072       H  0.63460543  0.69504583  0.69350912     0.19000
C2073       C  0.48908943  0.89087722  0.85370289    -0.06900
C2074       C  0.46518704  0.86627947  0.86291301    -0.18000
C2075       C  0.46128155  0.88317617  0.87816811     0.10300
C2076       C  0.48188015  0.92514305  0.88451176    -0.06800
C2077       C  0.50592647  0.94944759  0.87540863    -0.18000
C2078       C  0.51008517  0.93215525  0.86019316     0.10400
S2079       S  0.42914549  0.85059639  0.88892384    -0.33000
S2080       S  0.54381031  0.96163953  0.85000770    -0.33000
H2081       H  0.54982452  0.90985877  0.84159701     0.28400
H2082       H  0.42356876  0.90010542  0.89823803     0.28400
H2083       H  0.44874881  0.83521148  0.85807067     0.18900
H2084       H  0.52254750  0.97983596  0.88040495     0.19000
C2085       C  0.63913117  0.74959460  0.81090818    -0.06900
C2086       C  0.61748532  0.72703596  0.80050310    -0.18000
C2087       C  0.58819099  0.75414769  0.79837379     0.10300
C2088       C  0.57966972  0.80436579  0.80708488    -0.06800
C2089       C  0.60120138  0.82724869  0.81745853    -0.18000
C2090       C  0.63056310  0.80008466  0.81962429     0.10400
S2091       S  0.56314522  0.72388640  0.78389657    -0.33000
S2092       S  0.65514274  0.83024535  0.83429055    -0.33000
H2093       H  0.66710950  0.77503583  0.83910808     0.28400
H2094       H  0.54934475  0.77833745  0.77972917     0.28400
H2095       H  0.62389064  0.68940838  0.79349288     0.18900
H2096       H  0.59451948  0.86471518  0.82446115     0.19000
C2097       C  0.48497815  0.84699351  0.76043936    -0.06900
C2098       C  0.50558908  0.88371660  0.75195357    -0.18000
C2099       C  0.50578323  0.88446883  0.73597503     0.10300
C2100       C  0.48422530  0.84898495  0.72805781    -0.06800
C2101       C  0.46369997  0.81203194  0.73651770    -0.18000
C2102       C  0.46364050  0.81096340  0.75251210     0.10400
S2103       S  0.53551437  0.92858875  0.72647336    -0.33000
S2104       S  0.43477812  0.76483986  0.76199825    -0.33000
H2105       H  0.42565864  0.80836657  0.77261243     0.28400
H2106       H  0.54380049  0.88455185  0.71584250     0.28400
H2107       H  0.52238855  0.91114831  0.75781890     0.18900
H2108       H  0.44707823  0.78434107  0.73061416     0.19000
C2109       C  0.23516974  0.50238479  0.63050465    -0.06900
C2110       C  0.25946310  0.47945402  0.62138238    -0.18000
C2111       C  0.26359368  0.49846175  0.60625602     0.10300
C2112       C  0.24202802  0.53940770  0.59975987    -0.06800
C2113       C  0.21778511  0.56260087  0.60897057    -0.18000
C2114       C  0.21421050  0.54465390  0.62424995     0.10400
S2115       S  0.29821181  0.47193272  0.59624898    -0.33000
S2116       S  0.18095753  0.08129482  0.63597098    -0.33000
H2117       H  0.17646726  0.03156535  0.64551511     0.28400
H2118       H  0.30375864  0.52532799  0.58825657     0.28400
H2119       H  0.27645264  0.44918842  0.62633701     0.18900
H2120       H  0.20100824  0.59358304  0.60414354     0.19000
C2121       C  0.07644460  0.52636776  0.68109441    -0.06900
C2122       C  0.09681224  0.56576392  0.68837914    -0.18000
C2123       C  0.12934196  0.55741353  0.68806268     0.10300
C2124       C  0.14224169  0.50925764  0.67989371    -0.06800
C2125       C  0.12176910  0.46908069  0.67284620    -0.18000
C2126       C  0.08913489  0.47738847  0.67323066     0.10400
S2127       S  0.15263876  0.60839481  0.69888298    -0.33000
S2128       S  0.06536785  0.42637092  0.66265046    -0.33000
H2129       H  0.04560182  0.47026843  0.65642040     0.28400
H2130       H  0.17172682  0.56393543  0.70536137     0.28400
H2131       H  0.08725042  0.60325951  0.69455386     0.18900
H2132       H  0.13103580  0.93612381  0.66934363     0.19000
C2133       C  0.33026523  0.93131016  0.67547389    -0.06900
C2134       C  0.35193493  0.96234862  0.68426847    -0.18000
C2135       C  0.38238355  0.94050543  0.68649999     0.10300
C2136       C  0.39185496  0.88668138  0.67957036    -0.06800
C2137       C  0.37039464  0.85594366  0.67062371    -0.18000
C2138       C  0.34002902  0.87810564  0.66824925     0.10400
S2139       S  0.40745879  0.98203190  0.69896728    -0.33000
S2140       S  0.31560386  0.83785325  0.65522030    -0.33000
H2141       H  0.30135679  0.88873763  0.64893358     0.28400
H2142       H  0.42216538  0.93199590  0.70544110     0.28400
H2143       H  0.34469105  0.00256943  0.69004709     0.18900
H2144       H  0.37777794  0.81570625  0.66488641     0.19000
C2145       C  0.23485203  0.92846966  0.85009391    -0.06900
C2146       C  0.24022672  0.86904409  0.85438706    -0.18000
C2147       C  0.23770616  0.84986547  0.86958079     0.10300
C2148       C  0.23034586  0.89117364  0.88117394    -0.06800
C2149       C  0.22552732  0.95098034  0.87685610    -0.18000
C2150       C  0.22778031  0.96992080  0.86160627     0.10400
S2151       S  0.24316699  0.77176715  0.87306052    -0.33000
S2152       S  0.21956989  0.04669066  0.85756093    -0.33000
H2153       H  0.24981617  0.05703504  0.85138371     0.28400
H2154       H  0.21437341  0.76580840  0.88102992     0.28400
H2155       H  0.24576449  0.83648737  0.84572966     0.18900
H2156       H  0.21996771  0.98383880  0.88542241     0.19000
C2157       C  0.32819199  0.91682696  0.80271801    -0.06900
C2158       C  0.33976947  0.88446074  0.81515352    -0.18000
C2159       C  0.37217846  0.87870246  0.81745409     0.10300
C2160       C  0.39365358  0.90490062  0.80692788    -0.06800
C2161       C  0.38203732  0.93718906  0.79448241    -0.18000
C2162       C  0.34961887  0.94284149  0.79219037     0.10400
S2163       S  0.38464817  0.83975203  0.83442177    -0.33000
S2164       S  0.33710537  0.98144206  0.77524263    -0.33000
H2165       H  0.30886627  0.94986255  0.77360604     0.28400
H2166       H  0.41182595  0.87399342  0.83655898     0.28400
H2167       H  0.32346827  0.86586015  0.82351123     0.18900
H2168       H  0.39829537  0.95585215  0.78611834     0.19000
C2169       C  0.14170610  0.01438064  0.80497730    -0.06900
C2170       C  0.12008967  0.48172588  0.81496704    -0.18000
C2171       C  0.08960662  0.50364338  0.81728246     0.10300
C2172       C  0.07890539  0.55286484  0.80859938    -0.06800
C2173       C  0.09982106  0.58086465  0.79838357    -0.18000
C2174       C  0.13051425  0.55935509  0.79622020     0.10400
S2175       S  0.06608970  0.46854582  0.83204899    -0.33000
S2176       S  0.15646269  0.10313908  0.78300442    -0.33000
H2177       H  0.17237953  0.05194225  0.77799414     0.28400
H2178       H  0.05051428  0.52089871  0.83644668     0.28400
H2179       H  0.12815875  0.44450167  0.82179936     0.18900
H2180       H  0.09176796  0.61794593  0.79150178     0.19000
C2181       C  0.23417922  0.97711102  0.75667287    -0.06900
C2182       C  0.21851357  0.93187988  0.74877689    -0.18000
C2183       C  0.21817486  0.92992474  0.73283280     0.10300
C2184       C  0.23517792  0.97259613  0.72427325    -0.06800
C2185       C  0.24994801  0.01892640  0.73212020    -0.18000
C2186       C  0.24937818  0.02215702  0.74805905     0.10400
S2187       S  0.19395110  0.87410714  0.72429647    -0.33000
S2188       S  0.26832342  0.08535092  0.75634134    -0.33000
H2189       H  0.28569655  0.05204038  0.76685069     0.28400
H2190       H  0.17971689  0.91390744  0.71398948     0.28400
H2191       H  0.20561576  0.89811147  0.75506652     0.18900
H2192       H  0.26240066  0.05317937  0.72579459     0.19000
C2193       C  0.24435418  0.62004653  0.38057655    -0.06900
C2194       C  0.21973007  0.59500279  0.37236164    -0.18000
C2195       C  0.21284853  0.61463998  0.35754803     0.10300
C2196       C  0.23186276  0.65865179  0.35042680    -0.06800
C2197       C  0.25632676  0.68395109  0.35873263    -0.18000
C2198       C  0.26266560  0.66543407  0.37368117     0.10400
S2199       S  0.17818506  0.58471453  0.34878624    -0.33000
S2200       S  0.29454104  0.70167646  0.38330055    -0.33000
H2201       H  0.30077052  0.65585771  0.39374796     0.28400
H2202       H  0.17037438  0.63707799  0.34083493     0.28400
H2203       H  0.20456468  0.56247721  0.37785841     0.18900
H2204       H  0.27127034  0.71718858  0.35339304     0.19000
C2205       C  0.23916747  0.75416398  0.13134919    -0.06900
C2206       C  0.23874806  0.81438143  0.12687757    -0.18000
C2207       C  0.23919929  0.83180748  0.11149217     0.10300
C2208       C  0.23855842  0.78828926  0.09998816    -0.06800
C2209       C  0.23875718  0.72807891  0.10448891    -0.18000
C2210       C  0.23981454  0.71069660  0.11985141     0.10400
S2211       S  0.24203511  0.91004917  0.10750604    -0.33000
S2212       S  0.24354420  0.63254440  0.12381450    -0.33000
H2213       H  0.26799473  0.63975056  0.13434841     0.28400
H2214       H  0.26689964  0.90341520  0.09686155     0.28400
H2215       H  0.23858093  0.84869016  0.13545070     0.18900
H2216       H  0.23867332  0.69366088  0.09594863     0.19000
C2217       C  0.23507190  0.70511819  0.22472056    -0.06900
C2218       C  0.23030964  0.75822357  0.23279187    -0.18000
C2219       C  0.23046471  0.75979798  0.24873763     0.10300
C2220       C  0.23433722  0.70661504  0.25711420    -0.06800
C2221       C  0.23895272  0.65341544  0.24901891    -0.18000
C2222       C  0.23994825  0.65222526  0.23305000     0.10400
S2223       S  0.22472913  0.83089100  0.25751706    -0.33000
S2224       S  0.24908977  0.58243523  0.22415133    -0.33000
H2225       H  0.27110123  0.60680856  0.21374130     0.28400
H2226       H  0.25461299  0.83003200  0.26428457     0.28400
H2227       H  0.22657274  0.79938980  0.22662158     0.18900
H2228       H  0.24261911  0.61220471  0.25517447     0.19000
C2229       C  0.48887279  0.64068982  0.35328194    -0.06900
C2230       C  0.48194292  0.69952363  0.35743148    -0.18000
C2231       C  0.48564880  0.71965706  0.37238583     0.10300
C2232       C  0.49552252  0.67971034  0.38392141    -0.06800
C2233       C  0.50206998  0.62049692  0.37973379    -0.18000
C2234       C  0.49942658  0.60101740  0.36465141     0.10400
S2235       S  0.47813414  0.79712938  0.37566033    -0.33000
S2236       S  0.51153376  0.52607648  0.36061746    -0.33000
H2237       H  0.52912000  0.54147885  0.34745105     0.28400
H2238       H  0.50712991  0.80618251  0.38288939     0.28400
H2239       H  0.47411848  0.73083146  0.34882642     0.18900
H2240       H  0.50981869  0.58873077  0.38823351     0.19000
C2241       C  0.39075059  0.64181848  0.30708893    -0.06900
C2242       C  0.37864761  0.68153068  0.29625843    -0.18000
C2243       C  0.34616749  0.68724837  0.29423225     0.10300
C2244       C  0.32521171  0.65302362  0.30333075    -0.06800
C2245       C  0.33721972  0.61355360  0.31418613    -0.18000
C2246       C  0.36962483  0.60841235  0.31638367     0.10400
S2247       S  0.33289334  0.73751817  0.27950826    -0.33000
S2248       S  0.38229364  0.56095463  0.33184002    -0.33000
H2249       H  0.40782234  0.59681392  0.33595666     0.28400
H2250       H  0.30588676  0.70498249  0.27581036     0.28400
H2251       H  0.39456465  0.70655403  0.28892184     0.18900
H2252       H  0.32119989  0.58889756  0.32156212     0.19000
C2253       C  0.47979434  0.48530036  0.10412004    -0.06900
C2254       C  0.50271183  0.46067286  0.11368604    -0.18000
C2255       C  0.50487397  0.47785428  0.12901255     0.10300
C2256       C  0.48372291  0.52070844  0.13499331    -0.06800
C2257       C  0.46044172  0.54434741  0.12555372    -0.18000
C2258       C  0.45778441  0.52621210  0.11037099     0.10400
S2259       S  0.53568775  0.44471472  0.14025345    -0.33000
S2260       S  0.42466367  0.55455849  0.09982487    -0.33000
H2261       H  0.42029894  0.50278765  0.09125600     0.28400
H2262       H  0.54029134  0.49402911  0.14963478     0.28400
H2263       H  0.51844926  0.94032019  0.10792204     0.18900
H2264       H  0.44330452  0.57519886  0.13024090     0.19000
C2265       C  0.32830264  0.65820171  0.17884036    -0.06900
C2266       C  0.33547337  0.60611995  0.17069647    -0.18000
C2267       C  0.36542178  0.58009109  0.17120989     0.10300
C2268       C  0.38882368  0.60617703  0.18019268    -0.06800
C2269       C  0.38150751  0.65739813  0.18856361    -0.18000
C2270       C  0.35151113  0.68286660  0.18825346     0.10400
S2271       S  0.37266805  0.51580138  0.15957307    -0.33000
S2272       S  0.34402383  0.74431780  0.20082932    -0.33000
H2273       H  0.31456868  0.72309598  0.20594678     0.28400
H2274       H  0.40315537  0.53263688  0.15486501     0.28400
H2275       H  0.31780153  0.58617188  0.16356288     0.18900
H2276       H  0.39929320  0.67732238  0.19564104     0.19000
C2277       C  0.48192026  0.57696604  0.22800135    -0.06900
C2278       C  0.48890228  0.52600428  0.23676671    -0.18000
C2279       C  0.49047552  0.52768188  0.25273749     0.10300
C2280       C  0.48402949  0.58122325  0.26041283    -0.06800
C2281       C  0.47721965  0.63223341  0.25164483    -0.18000
C2282       C  0.47583937  0.63067499  0.23568211     0.10400
S2283       S  0.50268268  0.46094351  0.26246367    -0.33000
S2284       S  0.46463465  0.69809047  0.22598141    -0.33000
H2285       H  0.44350438  0.66998902  0.21615584     0.28400
H2286       H  0.52320620  0.49010969  0.27239821     0.28400
H2287       H  0.49414083  0.48454504  0.23110300     0.18900
H2288       H  0.47209828  0.67376972  0.25729687     0.19000
C2289       C  0.98798671  0.88492247  0.35441081    -0.06900
C2290       C  0.00055978  0.84283679  0.36444493    -0.18000
C2291       C  0.00553192  0.85598361  0.37983041     0.10300
C2292       C  0.99672496  0.91251263  0.38569579    -0.06800
C2293       C  0.98355916  0.95415346  0.37559902    -0.18000
C2294       C  0.97887617  0.94100391  0.36019012     0.10400
S2295       S  0.02454806  0.79884763  0.39091966    -0.33000
S2296       S  0.95997409  0.99718915  0.34869831    -0.33000
H2297       H  0.94308509  0.95725559  0.33970509     0.28400
H2298       H  0.04718417  0.83742945  0.39684231     0.28400
H2299       H  0.00802155  0.80006033  0.36009441     0.18900
H2300       H  0.97604397  0.99711896  0.37979070     0.19000
C2301       C  0.07829997  0.79395096  0.30808454    -0.06900
C2302       C  0.09866921  0.81369112  0.29644620    -0.18000
C2303       C  0.12823863  0.78750527  0.29427562     0.10300
C2304       C  0.13809620  0.74124989  0.30411758    -0.06800
C2305       C  0.11772665  0.72111858  0.31568755    -0.18000
C2306       C  0.08815414  0.74738799  0.31790862     0.10400
S2307       S  0.15193157  0.81374765  0.27842268    -0.33000
S2308       S  0.06490124  0.72165540  0.33400539    -0.33000
H2309       H  0.05135988  0.77720560  0.33726125     0.28400
H2310       H  0.16719567  0.75936561  0.27570422     0.28400
H2311       H  0.09103265  0.84814486  0.28861461     0.18900
H2312       H  0.12553149  0.68684698  0.32353163     0.19000
C2313       C  0.98164572  0.79125948  0.13495640    -0.06900
C2314       C  0.97658280  0.73166567  0.13080807    -0.18000
C2315       C  0.97599350  0.71366304  0.11556194     0.10300
C2316       C  0.98173641  0.75536791  0.10379513    -0.06800
C2317       C  0.98689247  0.81487879  0.10781848    -0.18000
C2318       C  0.98642048  0.83338577  0.12309173     0.10400
S2319       S  0.96616109  0.63743576  0.11199522    -0.33000
S2320       S  0.99147208  0.91132342  0.12644480    -0.33000
H2321       H  0.96414174  0.91569675  0.13563509     0.28400
H2322       H  0.94537581  0.65082462  0.10004122     0.28400
H2323       H  0.97246055  0.69815511  0.13952957     0.18900
H2324       H  0.99112100  0.84774663  0.09893250     0.19000
C2325       C  0.07810631  0.78277341  0.18089724    -0.06900
C2326       C  0.09755061  0.82315621  0.17284818    -0.18000
C2327       C  0.13025880  0.81642615  0.17233404     0.10300
C2328       C  0.14415035  0.76787977  0.17987673    -0.06800
C2329       C  0.12478282  0.72715080  0.18776282    -0.18000
C2330       C  0.09213449  0.73425599  0.18849422     0.10400
S2331       S  0.15268508  0.86792351  0.16082773    -0.33000
S2332       S  0.07014411  0.68085279  0.19965366    -0.33000
H2333       H  0.05182257  0.72375416  0.20728356     0.28400
H2334       H  0.17036463  0.88778015  0.17324910     0.28400
H2335       H  0.08719009  0.86022103  0.16674893     0.18900
H2336       H  0.13526611  0.68947443  0.19356693     0.19000
C2337       C  0.98502433  0.83490508  0.26117872    -0.06900
C2338       C  0.97437331  0.88471078  0.25290867    -0.18000
C2339       C  0.97381224  0.88543654  0.23691354     0.10300
C2340       C  0.98485970  0.83573051  0.22873706    -0.06800
C2341       C  0.99542841  0.78576954  0.23700692    -0.18000
C2342       C  0.99600015  0.78507188  0.25302876     0.10400
S2343       S  0.95702194  0.94971321  0.22773834    -0.33000
S2344       S  0.01269864  0.72082798  0.26227548    -0.33000
H2345       H  0.02910903  0.75312560  0.27330194     0.28400
H2346       H  0.94017305  0.91705421  0.21695501     0.28400
H2347       H  0.96570474  0.92319671  0.25899019     0.18900
H2348       H  0.00409994  0.74730258  0.23091785     0.19000
C2349       C  0.73709589  0.91087710  0.38713868    -0.06900
C2350       C  0.75282001  0.96065981  0.38112134    -0.18000
C2351       C  0.75273012  0.97372539  0.36545143     0.10300
C2352       C  0.73544159  0.93751843  0.35545632    -0.06800
C2353       C  0.71935686  0.88808244  0.36165359    -0.18000
C2354       C  0.71986950  0.87465330  0.37726823     0.10400
S2355       S  0.77659044  0.03502482  0.35901904    -0.33000
S2356       S  0.69682468  0.81245047  0.38395101    -0.33000
H2357       H  0.68629344  0.83967960  0.39749315     0.28400
H2358       H  0.79170809  0.00228332  0.34741501     0.28400
H2359       H  0.76615107  0.98868300  0.38865996     0.18900
H2360       H  0.70575168  0.85977800  0.35431698     0.19000
C2361       C  0.82738780  0.91244216  0.30697212    -0.06900
C2362       C  0.84004429  0.87689773  0.31853625    -0.18000
C2363       C  0.87261584  0.87008951  0.31989563     0.10300
C2364       C  0.89306891  0.89778164  0.30912926    -0.06800
C2365       C  0.88038751  0.93378577  0.29764788    -0.18000
C2366       C  0.84781301  0.94114037  0.29640783     0.10400
S2367       S  0.88661953  0.82803917  0.33608330    -0.33000
S2368       S  0.83366237  0.98625842  0.28081660    -0.33000
H2369       H  0.80566243  0.95441166  0.27878958     0.28400
H2370       H  0.91429012  0.86106742  0.33794098     0.28400
H2371       H  0.82453392  0.85667705  0.32700249     0.18900
H2372       H  0.89585570  0.95438090  0.28922842     0.19000
C2373       C  0.63898444  0.50029323  0.30877607    -0.06900
C2374       C  0.63262017  0.55711029  0.31467682    -0.18000
C2375       C  0.60255486  0.58227331  0.31412381     0.10300
C2376       C  0.57772369  0.54985546  0.30779409    -0.06800
C2377       C  0.58379807  0.49248805  0.30226488    -0.18000
C2378       C  0.61400117  0.46774143  0.30248360     0.10400
S2379       S  0.59696401  0.65405558  0.32254849    -0.33000
S2380       S  0.61897867  0.39583308  0.29398023    -0.33000
H2381       H  0.64857028  0.93153255  0.28391898     0.28400
H2382       H  0.58937869  0.68095660  0.30850897     0.28400
H2383       H  0.65130393  0.58258142  0.31975840     0.18900
H2384       H  0.56487747  0.46695289  0.29739614     0.19000
C2385       C  0.73686375  0.49393157  0.13567953    -0.06900
C2386       C  0.75530583  0.45828618  0.12610217    -0.18000
C2387       C  0.75885785  0.47181183  0.11054544     0.10300
C2388       C  0.74222945  0.52061912  0.10410512    -0.06800
C2389       C  0.72397332  0.55647871  0.11379460    -0.18000
C2390       C  0.72113357  0.54370102  0.12940977     0.10400
S2391       S  0.78659580  0.42702155  0.09991158    -0.33000
S2392       S  0.69578841  0.59093698  0.14062859    -0.33000
H2393       H  0.68445545  0.54420986  0.14980841     0.28400
H2394       H  0.79951440  0.47517234  0.09168914     0.28400
H2395       H  0.76827764  0.42130613  0.13091813     0.18900
H2396       H  0.71093304  0.59362875  0.10912037     0.19000
C2397       C  0.64178401  0.50498759  0.18366856    -0.06900
C2398       C  0.62939090  0.54673756  0.17352838    -0.18000
C2399       C  0.59688085  0.55366393  0.17202482     0.10300
C2400       C  0.57627391  0.52025329  0.18156436    -0.06800
C2401       C  0.58875431  0.47923830  0.19196944    -0.18000
C2402       C  0.62136727  0.47110970  0.19309063     0.10400
S2403       S  0.58230419  0.60266925  0.15721206    -0.33000
S2404       S  0.63681823  0.41961888  0.20707104    -0.33000
H2405       H  0.60764560  0.40076180  0.21309496     0.28400
H2406       H  0.61152022  0.61528748  0.15019207     0.28400
H2407       H  0.64519572  0.57251910  0.16641141     0.18900
H2408       H  0.57295038  0.45456215  0.19941496     0.19000
C2409       C  0.82959842  0.92272728  0.18203291    -0.06900
C2410       C  0.83687639  0.87086004  0.17384182    -0.18000
C2411       C  0.86732761  0.84714978  0.17356583     0.10300
C2412       C  0.89118508  0.87519471  0.18184285    -0.06800
C2413       C  0.88404656  0.92707012  0.18997469    -0.18000
C2414       C  0.85354673  0.95043906  0.19041108     0.10400
S2415       S  0.87454395  0.78319674  0.16179537    -0.33000
S2416       S  0.84655082  0.01324593  0.20259733    -0.33000
H2417       H  0.81844339  0.99054392  0.20896758     0.28400
H2418       H  0.90417802  0.80212982  0.15634564     0.28400
H2419       H  0.81881723  0.84914776  0.16729934     0.18900
H2420       H  0.90228791  0.94886689  0.19637779     0.19000
C2421       C  0.73324122  0.96438647  0.22925799    -0.06900
C2422       C  0.74610375  0.91550065  0.23695343    -0.18000
C2423       C  0.74751401  0.91404051  0.25297433     0.10300
C2424       C  0.73564644  0.96257712  0.26148580    -0.06800
C2425       C  0.71842539  0.49834477  0.25335307    -0.18000
C2426       C  0.71677339  0.49900082  0.23743407     0.10400
S2427       S  0.76635172  0.85177298  0.26231043    -0.33000
S2428       S  0.69571591  0.55974902  0.22869767    -0.33000
H2429       H  0.68289074  0.52566717  0.21693753     0.28400
H2430       H  0.77247561  0.81842510  0.24908977     0.28400
H2431       H  0.75601285  0.87941574  0.23036020     0.18900
H2432       H  0.70785731  0.53438677  0.25975180     0.19000
loop_ 
_geom_bond_atom_site_label_1 
_geom_bond_atom_site_label_2 
_geom_bond_distance 
_geom_bond_site_symmetry_2 
_ccdc_geom_bond_type 
O1           Cu9   2.030       .  S
O1           C11   1.281       .  A
O2           Cu9   2.039       .  S
O2         C1228   1.283       .  A
O3           Cu9   1.969       .  S
O3           C13   1.272       .  A
O4        Cu1225   1.966       .  S
O4           C14   1.271   1_565  A
O5          Cu10   2.024       .  S
O5           C14   1.281       .  A
O6          Cu10   2.027   1_565  S
O6         C1229   1.282       .  A
O7          Cu10   1.981       .  S
O7           C12   1.272   1_545  A
O8          Cu10   1.979       .  S
O8         C1227   1.273   1_545  A
Cu9        O1220   1.970       .  S
Cu9       Cu1226   2.374       .  S
Cu10      Cu1225   2.373   1_545  S
C11        O1224   1.273       .  A
C11        C1205   1.474       .  S
C12        O1218   1.284       .  A
C12        C1169   1.483   1_565  S
C13        O1222   1.282       .  A
C13        C1193   1.481       .  S
C14        C1181   1.462       .  S
O15       Cu1239   1.973       .  S
O15        C1241   1.272   1_545  A
O16         Cu23   1.973       .  S
O16          C26   1.272       .  A
O17         Cu23   2.025       .  S
O17          C27   1.281       .  A
O18         Cu23   2.032       .  S
O18          C28   1.282       .  A
O19         Cu24   1.978       .  S
O19          C28   1.274       .  A
O20         Cu24   1.982       .  S
O20          C27   1.273       .  A
O21         Cu24   2.027       .  S
O21          C26   1.281       .  A
O22         Cu24   2.032       .  S
O22          C25   1.282       .  A
Cu23       O1231   1.969       .  S
Cu23        Cu24   2.371       .  S
C25        O1231   1.272       .  A
C25        C2373   1.482       .  S
C26        C1145   1.467       .  S
C27        C1208   1.475       .  S
C28        C1136   1.486       .  S
O29         Cu37   2.029   1_455  S
O29          C39   1.282       .  A
O30         Cu37   2.032       .  S
O30          C40   1.283       .  A
O31         Cu37   1.977       .  S
O31          C41   1.273       .  A
O32         Cu37   1.982       .  S
O32          C42   1.272       .  A
O33         Cu38   2.044       .  S
O33          C42   1.284       .  A
O34         Cu38   2.046       .  S
O34          C41   1.283       .  A
O35         Cu38   1.965       .  S
O35          C40   1.271       .  A
O36         Cu38   1.963   1_455  S
O36          C39   1.271       .  A
Cu37        Cu38   2.369       .  S
C39        C1109   1.475       .  S
C40        C1196   1.472       .  S
C41        C1097   1.496       .  S
C42        C1124   1.483       .  S
O43         Cu51   1.978       .  S
O43          C53   1.272       .  A
O44         Cu51   1.978       .  S
O44          C54   1.273       .  A
O45         Cu51   2.030       .  S
O45          C55   1.282       .  A
O46         Cu51   2.035   1_455  S
O46          C56   1.283       .  A
O47         Cu52   1.970   1_455  S
O47          C56   1.271       .  A
O48         Cu52   1.971       .  S
O48          C55   1.272       .  A
O49         Cu52   2.045       .  S
O49          C54   1.284       .  A
O50         Cu52   2.037       .  S
O50          C53   1.283       .  A
Cu51        Cu52   2.373       .  S
C53        C1073   1.478       .  S
C54        C1121   1.481       .  S
C55        C1148   1.472       .  S
C56        C1085   1.475       .  S
O57         Cu65   2.028       .  S
O57          C67   1.282       .  A
O58         Cu65   2.036       .  S
O58          C68   1.282       .  A
O59         Cu65   1.984       .  S
O59          C69   1.272       .  A
O60         Cu65   1.983       .  S
O60          C70   1.274       .  A
O61         Cu66   2.038       .  S
O61          C70   1.283       .  A
O62         Cu66   2.040       .  S
O62          C69   1.283       .  A
O63         Cu66   1.961       .  S
O63          C68   1.270       .  A
O64         Cu66   1.959       .  S
O64          C67   1.270       .  A
Cu65        Cu66   2.373       .  S
C67        C1184   1.470       .  S
C68        C1052   1.470       .  S
C69        C1040   1.473       .  S
C70        C1061   1.488       .  S
O71         Cu79   1.957       .  S
O71          C81   1.269       .  A
O72         Cu79   1.962       .  S
O72          C82   1.270       .  A
O73         Cu79   2.044       .  S
O73          C83   1.284       .  A
O74         Cu79   2.041       .  S
O74          C84   1.284       .  A
O75         Cu80   1.978       .  S
O75          C84   1.272       .  A
O76         Cu80   1.973       .  S
O76          C83   1.272       .  A
O77         Cu80   2.049       .  S
O77          C82   1.284       .  A
O78         Cu80   2.048       .  S
O78          C81   1.285       .  A
Cu79        Cu80   2.368       .  S
C81        C1025   1.479       .  S
C82        C1160   1.482       .  S
C83        C1013   1.486       .  S
C84        C1064   1.488       .  S
O85         Cu93   2.038       .  S
O85          C95   1.283       .  A
O86         Cu93   2.039       .  S
O86          C96   1.283       .  A
O87         Cu93   1.970       .  S
O87          C97   1.271       .  A
O88         Cu93   1.960       .  S
O88          C98   1.270       .  A
O89         Cu94   2.031       .  S
O89          C98   1.282       .  A
O90         Cu94   2.028       .  S
O90          C97   1.282       .  A
O91         Cu94   1.964       .  S
O91          C96   1.271       .  A
O92         Cu94   1.964       .  S
O92          C95   1.271       .  A
Cu93        Cu94   2.370       .  S
C95        C1001   1.482       .  S
C96         C989   1.486       .  S
C97        C1049   1.477       .  S
C98        C1112   1.470       .  S
O99        Cu107   1.969       .  S
O99         C109   1.271       .  A
O100       Cu107   1.966       .  S
O100        C110   1.270       .  A
O101       Cu107   2.033       .  S
O101        C111   1.282       .  A
O102       Cu107   2.044       .  S
O102        C112   1.284       .  A
O103       Cu108   1.974       .  S
O103        C112   1.271       .  A
O104       Cu108   1.975       .  S
O104        C111   1.273       .  A
O105       Cu108   2.036       .  S
O105        C110   1.283       .  A
O106       Cu108   2.038       .  S
O106        C109   1.282       .  A
Cu107      Cu108   2.372       .  S
C109       C1088   1.470       .  S
C110       C1028   1.471       .  S
C111       C1004   1.486       .  S
C112        C980   1.483       .  S
O113       Cu121   1.968       .  S
O113        C123   1.272       .  A
O114       Cu121   1.970       .  S
O114        C124   1.273       .  A
O115       Cu121   2.031       .  S
O115        C125   1.282       .  A
O116       Cu121   2.033       .  S
O116        C126   1.282       .  A
O117       Cu122   1.976       .  S
O117        C126   1.272       .  A
O118       Cu122   1.973       .  S
O118        C125   1.271       .  A
O119       Cu122   2.035       .  S
O119        C124   1.282       .  A
O120       Cu122   2.047       .  S
O120        C123   1.283       .  A
Cu121      Cu122   2.370       .  S
C123        C929   1.486       .  S
C124        C965   1.490       .  S
C125        C941   1.472       .  S
C126        C953   1.472       .  S
O127       Cu135   2.038       .  S
O127        C137   1.282       .  A
O128       Cu135   2.035       .  S
O128        C138   1.282       .  A
O129       Cu135   1.970       .  S
O129       C1355   1.272       .  A
O130       Cu135   1.970       .  S
O130        C140   1.271       .  A
O131       Cu136   2.032       .  S
O131        C140   1.282       .  A
O132      Cu1352   2.020       .  S
O132        C139   1.281       .  A
O133       Cu136   1.971       .  S
O133        C138   1.273       .  A
O134      Cu1352   1.969       .  S
O134       C1353   1.270   1_545  A
Cu135      Cu136   2.370       .  S
Cu136      O1348   2.021       .  S
Cu136      O1350   1.973       .  S
C137       O1350   1.271       .  A
C137       C2109   1.469       .  S
C138        C968   1.491       .  S
C139       O1345   1.271   1_545  A
C139        C908   1.476       .  S
C140        C917   1.476       .  S
O141       Cu149   1.975       .  S
O141        C151   1.272       .  A
O142       Cu149   1.977       .  S
O142        C152   1.273       .  A
O143       Cu149   2.037       .  S
O143        C153   1.283       .  A
O144       Cu149   2.042       .  S
O144        C154   1.283       .  A
O145       Cu150   1.972       .  S
O145        C154   1.271       .  A
O146       Cu150   1.969       .  S
O146        C153   1.271       .  A
O147       Cu150   2.038       .  S
O147        C152   1.283       .  A
O148       Cu150   2.045       .  S
O148        C151   1.284       .  A
Cu149      Cu150   2.370       .  S
C151        C857   1.485       .  S
C152        C881   1.485       .  S
C153        C944   1.479       .  S
C154        C872   1.473       .  S
O155       Cu163   2.030       .  S
O155        C165   1.282       .  A
O156       Cu163   2.028       .  S
O156        C166   1.282       .  A
O157       Cu163   1.979       .  S
O157        C167   1.273       .  A
O158       Cu163   1.976       .  S
O158        C168   1.273       .  A
O159       Cu164   2.042       .  S
O159        C168   1.283       .  A
O160       Cu164   2.036       .  S
O160        C167   1.283       .  A
O161       Cu164   1.961       .  S
O161        C166   1.271       .  A
O162       Cu164   1.968       .  S
O162        C165   1.271       .  A
Cu163      Cu164   2.369       .  S
C165        C920   1.470       .  S
C166        C845   1.478       .  S
C167        C884   1.484       .  S
C168        C833   1.492       .  S
O169       Cu177   2.023       .  S
O169        C179   1.281       .  A
O170       Cu177   2.019       .  S
O170        C180   1.280       .  A
O171       Cu177   1.972       .  S
O171        C181   1.272       .  A
O172       Cu177   1.974       .  S
O172        C182   1.271       .  A
O173       Cu178   2.042       .  S
O173        C182   1.284       .  A
O174       Cu178   2.035       .  S
O174        C181   1.283       .  A
O175       Cu178   1.965       .  S
O175        C180   1.272       .  A
O176       Cu178   1.966       .  S
O176        C179   1.271       .  A
Cu177      Cu178   2.373       .  S
C179        C809   1.465       .  S
C180        C848   1.471       .  S
C181        C821   1.477       .  S
C182        C797   1.485       .  S
O183       Cu191   1.971       .  S
O183        C193   1.270       .  A
O184       Cu191   1.970       .  S
O184        C194   1.271       .  A
O185       Cu191   2.042       .  S
O185        C195   1.283       .  A
O186       Cu191   2.037       .  S
O186        C196   1.283       .  A
O187       Cu192   1.975       .  S
O187        C196   1.271       .  A
O188       Cu192   1.963       .  S
O188        C195   1.270       .  A
O189       Cu192   2.035       .  S
O189        C194   1.283       .  A
O190       Cu192   2.039       .  S
O190        C193   1.284       .  A
Cu191      Cu192   2.369       .  S
C193        C773   1.491       .  S
C194        C824   1.476       .  S
C195        C785   1.471       .  S
C196        C869   1.480       .  S
O197       Cu205   2.035       .  S
O197        C207   1.282       .  A
O198       Cu205   2.036       .  S
O198        C208   1.282       .  A
O199       Cu205   1.969       .  S
O199        C209   1.271       .  A
O200       Cu205   1.956   1_455  S
O200        C210   1.271       .  A
O201       Cu206   2.024   1_455  S
O201        C210   1.281       .  A
O202       Cu206   2.023       .  S
O202        C209   1.281       .  A
O203       Cu206   1.974       .  S
O203        C208   1.273       .  A
O204       Cu206   1.974       .  S
O204        C207   1.272       .  A
Cu205      Cu206   2.370       .  S
C207        C761   1.477       .  S
C208        C749   1.492       .  S
C209        C812   1.474       .  S
C210        C905   1.469       .  S
O211       Cu219   1.976       .  S
O211        C221   1.272       .  A
O212       Cu219   1.978       .  S
O212        C222   1.272       .  A
O213       Cu219   2.041   1_455  S
O213        C223   1.283       .  A
O214       Cu219   2.038       .  S
O214        C224   1.284       .  A
O215       Cu220   1.967       .  S
O215        C224   1.270       .  A
O216       Cu220   1.970   1_455  S
O216        C223   1.271       .  A
O217       Cu220   2.036       .  S
O217        C222   1.283       .  A
O218       Cu220   2.034       .  S
O218        C221   1.283       .  A
Cu219      Cu220   2.373       .  S
C221        C764   1.475       .  S
C222        C737   1.474       .  S
C223        C956   1.479       .  S
C224        C788   1.477       .  S
O225       Cu233   2.034       .  S
O225        C235   1.282       .  A
O226       Cu233   2.039       .  S
O226        C236   1.283       .  A
O227       Cu233   1.975       .  S
O227        C237   1.272       .  A
O228       Cu233   1.974       .  S
O228        C238   1.271       .  A
O229       Cu234   2.034       .  S
O229        C238   1.283       .  A
O230       Cu234   2.042       .  S
O230        C237   1.283       .  A
O231       Cu234   1.976       .  S
O231        C236   1.272       .  A
O232       Cu234   1.972       .  S
O232        C235   1.272       .  A
Cu233      Cu234   2.373       .  S
C235        C725   1.474       .  S
C236        C800   1.473       .  S
C237        C716   1.473       .  S
C238        C701   1.480       .  S
O239       Cu247   1.965       .  S
O239        C249   1.271       .  A
O240       Cu247   1.970       .  S
O240        C250   1.273       .  A
O241       Cu247   2.024       .  S
O241        C251   1.281       .  A
O242       Cu247   2.031       .  S
O242        C252   1.282       .  A
O243       Cu248   1.979       .  S
O243        C252   1.272       .  A
O244       Cu248   1.982       .  S
O244        C251   1.273       .  A
O245       Cu248   2.040       .  S
O245        C250   1.282       .  A
O246       Cu248   2.048       .  S
O246        C249   1.283       .  A
Cu247      Cu248   2.371       .  S
C249        C689   1.472       .  S
C250        C677   1.493       .  S
C251        C728   1.475       .  S
C252       C1133   1.473       .  S
O253       Cu261   1.967   1_455  S
O253        C263   1.271       .  A
O254       Cu261   1.963       .  S
O254        C264   1.271       .  A
O255       Cu261   2.037       .  S
O255        C265   1.283       .  A
O256       Cu261   2.042       .  S
O256        C266   1.285       .  A
O257       Cu262   1.971       .  S
O257        C266   1.270   1_455  A
O258       Cu262   1.968       .  S
O258        C265   1.271   1_455  A
O259       Cu262   2.041   1_655  S
O259        C264   1.283       .  A
O260       Cu262   2.048       .  S
O260        C263   1.284       .  A
Cu261      Cu262   2.367   1_655  S
C263       C1869   1.477       .  S
C264        C680   1.486       .  S
C265        C668   1.479       .  S
C266       C1076   1.491       .  S
O267       Cu275   2.035       .  S
O267        C277   1.283       .  A
O268      Cu1491   2.036   1_455  S
O268        C278   1.283       .  A
O269       Cu275   1.971       .  S
O269        C279   1.272       .  A
O270      Cu1491   1.978       .  S
O270       C1496   1.274       .  A
O271       Cu276   2.030       .  S
O271        C280   1.281       .  A
O272       Cu276   2.032       .  S
O272        C279   1.282       .  A
O273       Cu276   1.970   1_455  S
O273       C1494   1.272       .  A
O274       Cu276   1.976       .  S
O274        C277   1.272       .  A
Cu275      O1484   2.032   1_655  S
Cu275      O1486   1.976       .  S
Cu275      Cu276   2.369       .  S
C277        C713   1.478       .  S
C278       O1489   1.272   1_545  A
C278        C641   1.479       .  S
C279        C665   1.478       .  S
C280       O1486   1.273       .  A
C280       C1968   1.489       .  S
O281       Cu289   1.975       .  S
O281        C291   1.272       .  A
O282       Cu289   1.974       .  S
O282        C292   1.271       .  A
O283       Cu289   2.044       .  S
O283        C293   1.284       .  A
O284       Cu289   2.048       .  S
O284        C294   1.284       .  A
O285       Cu290   1.973       .  S
O285        C294   1.271       .  A
O286       Cu290   1.968       .  S
O286        C293   1.271       .  A
O287       Cu290   2.037       .  S
O287        C292   1.283       .  A
O288       Cu290   2.043       .  S
O288        C291   1.285       .  A
Cu289      Cu290   2.371       .  S
C291        C656   1.484       .  S
C292        C617   1.480       .  S
C293        C632   1.481       .  S
C294        C977   1.474       .  S
O295       Cu303   2.035       .  S
O295        C305   1.282       .  A
O296       Cu303   2.041       .  S
O296        C306   1.283       .  A
O297       Cu303   1.963       .  S
O297        C307   1.270       .  A
O298       Cu303   1.969       .  S
O298        C308   1.271       .  A
O299       Cu304   2.045       .  S
O299        C308   1.284       .  A
O300       Cu304   2.048       .  S
O300        C307   1.284       .  A
O301       Cu304   1.978       .  S
O301        C306   1.272       .  A
O302       Cu304   1.977       .  S
O302        C305   1.272       .  A
Cu303      Cu304   2.370       .  S
C305        C644   1.475       .  S
C306        C605   1.481       .  S
C307        C896   1.479       .  S
C308        C629   1.484       .  S
O309       Cu317   2.043       .  S
O309        C319   1.283       .  A
O310       Cu317   2.032       .  S
O310        C320   1.281       .  A
O311       Cu317   1.969       .  S
O311        C321   1.271       .  A
O312       Cu317   1.979       .  S
O312        C322   1.272       .  A
O313       Cu318   2.041       .  S
O313        C322   1.283       .  A
O314       Cu318   2.040       .  S
O314        C321   1.283       .  A
O315       Cu318   1.977       .  S
O315        C320   1.273       .  A
O316       Cu318   1.976       .  S
O316        C319   1.273       .  A
Cu317      Cu318   2.368       .  S
C319        C836   1.492       .  S
C320        C593   1.493       .  S
C321        C704   1.473       .  S
C322        C608   1.476       .  S
O323       Cu331   1.977       .  S
O323        C333   1.273       .  A
O324       Cu331   1.971       .  S
O324        C334   1.273       .  A
O325       Cu331   2.031       .  S
O325        C335   1.282       .  A
O326       Cu331   2.031       .  S
O326        C336   1.282       .  A
O327       Cu332   1.987       .  S
O327        C336   1.273       .  A
O328       Cu332   1.974       .  S
O328        C335   1.272       .  A
O329       Cu332   2.037       .  S
O329        C334   1.282       .  A
O330       Cu332   2.038       .  S
O330        C333   1.282       .  A
Cu331      Cu332   2.366       .  S
C333       C1016   1.494       .  S
C334        C596   1.493       .  S
C335        C620   1.472       .  S
C336        C692   1.477       .  S
O337       Cu345   1.974       .  S
O337        C347   1.273       .  A
O338       Cu345   1.987       .  S
O338        C348   1.274       .  A
O339       Cu345   2.047       .  S
O339        C349   1.284       .  A
O340       Cu345   2.046       .  S
O340        C350   1.284       .  A
O341       Cu346   1.960       .  S
O341        C350   1.271       .  A
O342       Cu346   1.974       .  S
O342        C349   1.271       .  A
O343       Cu346   2.032       .  S
O343        C348   1.282       .  A
O344       Cu346   2.033       .  S
O344        C347   1.282       .  A
Cu345      Cu346   2.367       .  S
C347        C581   1.483       .  S
C348        C932   1.495       .  S
C349        C572   1.481       .  S
C350        C557   1.480       .  S
O351       Cu359   2.035       .  S
O351        C361   1.282       .  A
O352       Cu359   2.035       .  S
O352        C362   1.283       .  A
O353       Cu359   1.968       .  S
O353        C363   1.271       .  A
O354       Cu359   1.974       .  S
O354        C364   1.271       .  A
O355       Cu360   2.035       .  S
O355        C364   1.283       .  A
O356       Cu360   2.038       .  S
O356        C363   1.283       .  A
O357       Cu360   1.972       .  S
O357        C362   1.272       .  A
O358       Cu360   1.969       .  S
O358        C361   1.272       .  A
Cu359      Cu360   2.371       .  S
C361        C992   1.488       .  S
C362        C584   1.480       .  S
C363        C536   1.474       .  S
C364        C548   1.473       .  S
O365       Cu373   1.978       .  S
O365        C375   1.272       .  A
O366       Cu373   1.976       .  S
O366        C376   1.272       .  A
O367       Cu373   2.042       .  S
O367        C377   1.284       .  A
O368       Cu373   2.032       .  S
O368        C378   1.282       .  A
O369       Cu374   1.972       .  S
O369        C378   1.273       .  A
O370       Cu374   1.967       .  S
O370        C377   1.271       .  A
O371       Cu374   2.034       .  S
O371        C376   1.282       .  A
O372       Cu374   2.029       .  S
O372        C375   1.282       .  A
Cu373      Cu374   2.371       .  S
C375        C776   1.482       .  S
C376        C521   1.472       .  S
C377        C497   1.475       .  S
C378        C509   1.483       .  S
O379       Cu387   2.043       .  S
O379        C389   1.283       .  A
O380       Cu387   2.042   1_565  S
O380        C390   1.284   1_565  A
O381       Cu387   1.974       .  S
O381        C391   1.272       .  A
O382       Cu387   1.973   1_565  S
O382        C392   1.270   1_565  A
O383       Cu388   2.045       .  S
O383        C392   1.285       .  A
O384       Cu388   2.038       .  S
O384        C391   1.283       .  A
O385       Cu388   1.965       .  S
O385        C390   1.270       .  A
O386       Cu388   1.969       .  S
O386        C389   1.272       .  A
Cu387      Cu388   2.368       .  S
C389        C488   1.482       .  S
C390        C473   1.481       .  S
C391        C524   1.473       .  S
C392       C1172   1.494       .  S
O393       Cu401   1.978       .  S
O393        C403   1.272       .  A
O394       Cu401   1.981       .  S
O394        C404   1.272       .  A
O395       Cu401   2.039       .  S
O395        C405   1.283       .  A
O396       Cu401   2.026       .  S
O396        C406   1.281       .  A
O397       Cu402   1.981       .  S
O397        C406   1.274       .  A
O398       Cu402   1.975       .  S
O398        C405   1.273       .  A
O399       Cu402   2.041       .  S
O399        C404   1.283       .  A
O400       Cu402   2.042       .  S
O400        C403   1.283       .  A
Cu401      Cu402   2.371       .  S
C403        C461   1.476       .  S
C404        C860   1.475       .  S
C405        C512   1.484       .  S
C406        C560   1.488       .  S
O407       Cu415   2.054       .  S
O407        C417   1.285       .  A
O408       Cu415   2.047       .  S
O408        C418   1.284       .  A
O409       Cu415   1.967       .  S
O409       C1635   1.270       .  A
O410       Cu415   1.965       .  S
O410        C420   1.270       .  A
O411      Cu1632   2.043       .  S
O411        C420   1.284       .  A
O412       Cu416   2.040       .  S
O412        C419   1.284   1_545  A
O413      Cu1632   1.974       .  S
O413        C418   1.271       .  A
O414       Cu416   1.976       .  S
O414       C1633   1.272   1_545  A
Cu415     Cu1632   2.372       .  S
Cu416      O1627   2.045   1_545  S
Cu416      O1629   1.974       .  S
Cu416     Cu1631   2.372   1_545  S
C417       O1630   1.271       .  A
C417       C2253   1.484       .  S
C418        C464   1.476       .  S
C419       O1625   1.270       .  A
C419        C476   1.475   1_565  S
C420        C545   1.479       .  S
O421       Cu429   1.971       .  S
O421        C431   1.271       .  A
O422       Cu429   1.973   1_455  S
O422        C432   1.271       .  A
O423       Cu429   2.046       .  S
O423        C433   1.285       .  A
O424       Cu429   2.030       .  S
O424        C434   1.283       .  A
O425       Cu430   1.975       .  S
O425        C434   1.271       .  A
O426       Cu430   1.969       .  S
O426        C433   1.270       .  A
O427       Cu430   2.049   1_455  S
O427        C432   1.284       .  A
O428       Cu430   2.045       .  S
O428        C431   1.283       .  A
Cu429      Cu430   2.371       .  S
C431        C500   1.472       .  S
C432        C569   1.475       .  S
C433        C740   1.488       .  S
C434        C452   1.478       .  S
O435       Cu443   2.030       .  S
O435        C445   1.282       .  A
O436       Cu443   2.026   1_455  S
O436        C446   1.280       .  A
O437       Cu443   1.971       .  S
O437        C447   1.272       .  A
O438       Cu443   1.978       .  S
O438        C448   1.272       .  A
O439       Cu444   2.042       .  S
O439        C448   1.284       .  A
O440       Cu444   2.033       .  S
O440        C447   1.282       .  A
O441       Cu444   1.979   1_455  S
O441        C446   1.272       .  A
O442       Cu444   1.983       .  S
O442        C445   1.274       .  A
Cu443      Cu444   2.371       .  S
C445        C485   1.489       .  S
C446        C533   1.468       .  S
C447        C449   1.477       .  S
C448       C1100   1.480       .  S
C449        C450   1.400       .  A
C449        C454   1.417       .  A
C450        C451   1.400   1_554  A
C450        H459   1.085       .  S
C451        C452   1.421       .  A
C451        S455   1.804       .  S
C452        C453   1.399       .  A
C453        C454   1.395   1_556  A
C453        H460   1.085       .  S
C454        S456   1.804   1_655  S
S455        H458   1.406       .  S
S456        H457   1.408       .  S
C461        C462   1.400       .  A
C461        C466   1.415       .  A
C462        C463   1.402   1_556  A
C462        H471   1.084       .  S
C463        C464   1.419       .  A
C463       S1683   1.806       .  S
C464        C465   1.399       .  A
C465        C466   1.399   1_554  A
C465        H472   1.084       .  S
C466        S468   1.803       .  S
S467       C1679   1.805       .  S
S467        H470   1.406       .  S
S468        H469   1.407       .  S
C473        C474   1.401   1_545  A
C473        C478   1.421       .  A
C474        C475   1.399       .  A
C474        H483   1.084       .  S
C475        C476   1.419   1_565  A
C475        S479   1.805       .  S
C476        C477   1.398       .  A
C477        C478   1.398       .  A
C477        H484   1.084       .  S
C478        S480   1.805       .  S
S479        H482   1.406       .  S
S480        H481   1.408       .  S
C485        C486   1.411       .  A
C485        C490   1.415       .  A
C486        C487   1.400       .  A
C486        H495   1.084       .  S
C487        C488   1.410       .  A
C487        S491   1.801       .  S
C488        C489   1.407       .  A
C489        C490   1.398       .  A
C489        H496   1.084       .  S
C490        S492   1.802       .  S
S491        H494   1.407       .  S
S492        H493   1.408       .  S
C497        C498   1.399       .  A
C497        C502   1.418       .  A
C498        C499   1.399       .  A
C498        H507   1.084       .  S
C499        C500   1.416       .  A
C499        S503   1.804       .  S
C500        C501   1.399       .  A
C501        C502   1.399       .  A
C501        H508   1.084       .  S
C502        S504   1.805       .  S
S503        H506   1.404       .  S
S504        H505   1.407       .  S
C509        C510   1.409   1_545  A
C509        C514   1.410       .  A
C510        C511   1.397       .  A
C510        H519   1.084       .  S
C511       C1728   1.414       .  A
C511       S1731   1.801       .  S
C512       C1727   1.413       .  A
C512       C1729   1.410       .  A
C513        C514   1.398       .  A
C513       C1728   1.412   1_545  A
C513        H520   1.083       .  S
C514        S516   1.802       .  S
S515       C1727   1.802       .  S
S515        H518   1.408       .  S
S516        H517   1.408       .  S
C521        C522   1.399       .  A
C521        C526   1.415       .  A
C522        C523   1.398   1_556  A
C522        H531   1.084       .  S
C523        C524   1.416       .  A
C523        S527   1.804       .  S
C524        C525   1.401       .  A
C525        C526   1.400   1_554  A
C525        H532   1.084       .  S
C526        S528   1.805       .  S
S527        H530   1.407       .  S
S528        H529   1.407       .  S
C533        C534   1.405       .  A
C533        C538   1.407       .  A
C534        C535   1.399       .  A
C534        H543   1.084       .  S
C535        C536   1.410       .  A
C535        S539   1.803       .  S
C536        C537   1.408       .  A
C537        C538   1.398       .  A
C537        H544   1.084       .  S
C538        S540   1.802       .  S
S539        H542   1.407       .  S
S540        H541   1.404       .  S
C545        C546   1.401       .  A
C545        C550   1.420       .  A
C546        C547   1.400       .  A
C546        H555   1.085       .  S
C547        C548   1.416       .  A
C547        S551   1.804       .  S
C548        C549   1.398       .  A
C549        C550   1.398       .  A
C549        H556   1.085       .  S
C550        S552   1.805       .  S
S551        H554   1.407       .  S
S552        H553   1.408       .  S
C557        C558   1.407       .  A
C557        C562   1.409       .  A
C558        C559   1.396       .  A
C558        H567   1.085       .  S
C559        C560   1.413       .  A
C559        S563   1.800       .  S
C560        C561   1.413       .  A
C561        C562   1.401       .  A
C561        H568   1.084       .  S
C562        S564   1.802       .  S
S563        H566   1.408       .  S
S564        H565   1.407       .  S
C569        C570   1.399       .  A
C569        C574   1.416       .  A
C570        C571   1.401       .  A
C570        H579   1.085       .  S
C571        C572   1.419       .  A
C571        S575   1.804       .  S
C572        C573   1.402       .  A
C573        C574   1.401       .  A
C573        H580   1.085       .  S
C574        S576   1.805       .  S
S575        H578   1.407       .  S
S576        H577   1.407       .  S
C581        C582   1.409       .  A
C581        C586   1.412       .  A
C582        C583   1.398       .  A
C582        H591   1.083       .  S
C583        C584   1.411   1_556  A
C583        S587   1.802   1_556  S
C584        C585   1.408   1_554  A
C585        C586   1.399       .  A
C585        H592   1.084   1_556  S
C586        S588   1.800       .  S
S587        H590   1.407       .  S
S588        H589   1.407       .  S
C593        C594   1.413       .  A
C593        C598   1.413       .  A
C594        C595   1.404       .  A
C594        H603   1.082       .  S
C595        C596   1.414       .  A
C595        S599   1.810       .  S
C596        C597   1.411       .  A
C597        C598   1.396       .  A
C597        H604   1.083       .  S
C598        S600   1.801       .  S
S599        H602   1.406       .  S
S600        H601   1.405       .  S
C605        C606   1.401       .  A
C605        C610   1.419       .  A
C606        C607   1.400       .  A
C606        H615   1.084       .  S
C607        C608   1.417       .  A
C607        S611   1.804       .  S
C608        C609   1.399       .  A
C609        C610   1.400       .  A
C609        H616   1.085       .  S
C610        S612   1.804       .  S
S611        H614   1.406       .  S
S612        H613   1.408       .  S
C617        C618   1.403       .  A
C617        C622   1.420       .  A
C618        C619   1.399       .  A
C618        H627   1.084       .  S
C619        C620   1.415       .  A
C619        S623   1.805       .  S
C620        C621   1.398       .  A
C621        C622   1.398       .  A
C621        H628   1.084       .  S
C622        S624   1.804       .  S
S623        H626   1.407       .  S
S624        H625   1.405       .  S
C629        C630   1.410       .  A
C629        C634   1.410       .  A
C630        C631   1.399       .  A
C630        H639   1.083       .  S
C631        C632   1.409       .  A
C631        S635   1.802   1_545  S
C632        C633   1.410       .  A
C633        C634   1.400       .  A
C633        H640   1.083       .  S
C634        S636   1.799       .  S
S635        H638   1.408   1_565  S
S636        H637   1.407       .  S
C641        C642   1.407   1_545  A
C641        C646   1.412       .  A
C642        C643   1.397       .  A
C642        H651   1.083       .  S
C643        C644   1.408   1_565  A
C643        S647   1.800       .  S
C644        C645   1.407       .  A
C645        C646   1.401       .  A
C645        H652   1.083       .  S
C646        S648   1.802       .  S
S647        H650   1.406       .  S
S648        H649   1.408       .  S
C653       C1479   1.478       .  S
C653        C654   1.406   1_565  A
C653        C658   1.410       .  A
C654        C655   1.398       .  A
C654        H663   1.084       .  S
C655        C656   1.411       .  A
C655        S659   1.802       .  S
C656        C657   1.411   1_545  A
C657        C658   1.403       .  A
C657        H664   1.084       .  S
C658        S660   1.802       .  S
S659        H662   1.408       .  S
S660       H1877   1.406       .  S
H661       S1876   1.407       .  S
C665        C666   1.407       .  A
C665        C670   1.412   1_655  A
C666        C667   1.398       .  A
C666        H675   1.084       .  S
C667        C668   1.411       .  A
C667        S671   1.802       .  S
C668        C669   1.408   1_655  A
C669        C670   1.398       .  A
C669        H676   1.084       .  S
C670        S672   1.803       .  S
S671        H674   1.407       .  S
S672        H673   1.408       .  S
C677        C678   1.414       .  A
C677        C682   1.414       .  A
C678        C679   1.398       .  A
C678        H687   1.083       .  S
C679        C680   1.410       .  A
C679        S683   1.802       .  S
C680        C681   1.410       .  A
C681        C682   1.399       .  A
C681        H688   1.084       .  S
C682        S684   1.801       .  S
S683        H686   1.408       .  S
S684        H685   1.404       .  S
C689        C690   1.401       .  A
C689        C694   1.414       .  A
C690        C691   1.403       .  A
C690        H699   1.085       .  S
C691        C692   1.417       .  A
C691        S695   1.804       .  S
C692        C693   1.400       .  A
C693        C694   1.397       .  A
C693        H700   1.085       .  S
C694        S696   1.804       .  S
S695        H698   1.407       .  S
S696        H697   1.407       .  S
C701        C702   1.400       .  A
C701        C706   1.419       .  A
C702        C703   1.397       .  A
C702        H711   1.083       .  S
C703        C704   1.415       .  A
C703        S707   1.803       .  S
C704        C705   1.399       .  A
C705        C706   1.404       .  A
C705        H712   1.083       .  S
C706        S708   1.809       .  S
S707        H710   1.407       .  S
S708        H709   1.407       .  S
C713        C714   1.400       .  A
C713        C718   1.418       .  A
C714        C715   1.398       .  A
C714        H723   1.084       .  S
C715        C716   1.416       .  A
C715        S719   1.803       .  S
C716        C717   1.399       .  A
C717        C718   1.400       .  A
C717        H724   1.084       .  S
C718        S720   1.804       .  S
S719        H722   1.406       .  S
S720        H721   1.408       .  S
C725        C726   1.400       .  A
C725        C730   1.417       .  A
C726        C727   1.399       .  A
C726        H735   1.082       .  S
C727        C728   1.417       .  A
C727        S731   1.802       .  S
C728        C729   1.399       .  A
C729        C730   1.396       .  A
C729        H736   1.082       .  S
C730        S732   1.804       .  S
S731        H734   1.407       .  S
S732        H733   1.406       .  S
C737        C738   1.397   1_655  A
C737        C742   1.415       .  A
C738        C739   1.403       .  A
C738        H747   1.082       .  S
C739        C740   1.424   1_455  A
C739        S743   1.811       .  S
C740        C741   1.403       .  A
C741        C742   1.399       .  A
C741        H748   1.084       .  S
C742        S744   1.804       .  S
S743        H746   1.407       .  S
S744        H745   1.406       .  S
C749        C750   1.413   1_545  A
C749        C754   1.414       .  A
C750       C1967   1.399       .  A
C750       H1975   1.082       .  S
C751       C1966   1.397       .  A
C751       C1968   1.412       .  A
C751        S755   1.800       .  S
C752       C1496   1.488       .  S
C752        C753   1.410       .  A
C752       C1967   1.411   1_545  A
C753        C754   1.399       .  A
C753        H760   1.083       .  S
C754        S756   1.801       .  S
S755        H758   1.408   1_655  S
S756        H757   1.405       .  S
H759       C1966   1.082       .  S
C761        C762   1.407       .  A
C761        C766   1.412   1_655  A
C762        C763   1.398       .  A
C762        H771   1.084       .  S
C763        C764   1.410       .  A
C763        S767   1.803       .  S
C764        C765   1.407   1_655  A
C765        C766   1.400       .  A
C765        H772   1.084       .  S
C766        S768   1.803       .  S
S767        H770   1.407       .  S
S768        H769   1.407       .  S
C773        C774   1.403       .  A
C773        C778   1.425       .  A
C774        C775   1.398       .  A
C774        H783   1.084       .  S
C775        C776   1.418       .  A
C775        S779   1.804       .  S
C776        C777   1.399       .  A
C777        C778   1.398       .  A
C777        H784   1.084       .  S
C778        S780   1.803       .  S
S779        H782   1.408       .  S
S780        H781   1.408       .  S
C785        C786   1.398       .  A
C785        C790   1.415       .  A
C786        C787   1.399       .  A
C786        H795   1.084       .  S
C787        C788   1.420       .  A
C787        S791   1.805       .  S
C788        C789   1.400       .  A
C789        C790   1.397       .  A
C789        H796   1.084       .  S
C790        S792   1.804       .  S
S791        H794   1.407       .  S
S792        H793   1.407       .  S
C797        C798   1.403       .  A
C797        C802   1.422       .  A
C798        C799   1.400       .  A
C798        H807   1.084       .  S
C799        C800   1.416       .  A
C799        S803   1.804       .  S
C800        C801   1.397       .  A
C801        C802   1.399       .  A
C801        H808   1.084       .  S
C802        S804   1.804       .  S
S803        H806   1.406       .  S
S804        H805   1.408       .  S
C809        C810   1.397       .  A
C809        C814   1.415       .  A
C810        C811   1.395       .  A
C810        H819   1.084       .  S
C811        C812   1.418       .  A
C811        S815   1.803       .  S
C812        C813   1.401       .  A
C813        C814   1.395       .  A
C813        H820   1.083       .  S
C814        S816   1.805       .  S
S815        H818   1.407       .  S
S816        H817   1.406       .  S
C821        C822   1.401       .  A
C821        C826   1.418       .  A
C822        C823   1.399       .  A
C822        H831   1.084       .  S
C823        C824   1.418       .  A
C823        S827   1.804       .  S
C824        C825   1.399       .  A
C825        C826   1.397       .  A
C825        H832   1.084       .  S
C826        S828   1.804       .  S
S827        H830   1.407       .  S
S828        H829   1.407       .  S
C833        C834   1.412       .  A
C833        C838   1.413       .  A
C834        C835   1.400       .  A
C834        H843   1.083       .  S
C835        C836   1.412       .  A
C835        S839   1.802       .  S
C836        C837   1.412       .  A
C837        C838   1.400       .  A
C837        H844   1.082       .  S
C838        S840   1.802       .  S
S839        H842   1.408       .  S
S840        H841   1.408       .  S
C845        C846   1.410       .  A
C845        C850   1.412       .  A
C846        C847   1.395       .  A
C846        H855   1.083       .  S
C847        C848   1.407       .  A
C847        S851   1.800       .  S
C848        C849   1.406       .  A
C849        C850   1.395       .  A
C849        H856   1.084       .  S
C850        S852   1.802       .  S
S851        H854   1.407       .  S
S852        H853   1.408       .  S
C857        C858   1.403       .  A
C857        C862   1.421       .  A
C858        C859   1.402       .  A
C858        H867   1.084       .  S
C859        C860   1.416       .  A
C859        S863   1.804       .  S
C860        C861   1.398       .  A
C861        C862   1.399       .  A
C861        H868   1.085       .  S
C862        S864   1.804       .  S
S863        H866   1.406       .  S
S864        H865   1.408       .  S
C869        C870   1.401       .  A
C869        C874   1.420       .  A
C870        C871   1.397       .  A
C870        H879   1.084       .  S
C871        C872   1.414       .  A
C871        S875   1.805       .  S
C872        C873   1.400       .  A
C873        C874   1.402       .  A
C873        H880   1.084       .  S
C874        S876   1.804       .  S
S875        H878   1.407       .  S
S876        H877   1.407       .  S
C881        C882   1.409       .  A
C881        C886   1.412       .  A
C882        C883   1.399       .  A
C882        H891   1.083       .  S
C883        C884   1.412       .  A
C883        S887   1.802       .  S
C884        C885   1.409       .  A
C885        C886   1.400       .  A
C885        H892   1.083       .  S
C886        S888   1.802       .  S
S887        H890   1.408       .  S
S888        H889   1.408       .  S
C893       C1353   1.467   1_545  S
C893        C894   1.396   1_545  A
C893        C898   1.414       .  A
C894        C895   1.397   1_565  A
C894        H903   1.084       .  S
C895        C896   1.420       .  A
C895        S899   1.805   1_545  S
C896        C897   1.402       .  A
C897        C898   1.401       .  A
C897        H904   1.084       .  S
C898       S2116   1.804       .  S
S899        H902   1.408   1_565  S
S900       C2114   1.804       .  S
S900        H901   1.406       .  S
C905        C906   1.406       .  A
C905        C910   1.408   1_545  A
C906        C907   1.394       .  A
C906        H915   1.083       .  S
C907        C908   1.411       .  A
C907        S911   1.802       .  S
C908        C909   1.410   1_545  A
C909        C910   1.395       .  A
C909       H2132   1.083       .  S
C910        S912   1.803       .  S
S911        H914   1.408       .  S
S912        H913   1.408       .  S
H916       C2125   1.083       .  S
C917        C918   1.401       .  A
C917        C922   1.419       .  A
C918        C919   1.397       .  A
C918        H927   1.084       .  S
C919        C920   1.415       .  A
C919        S923   1.805       .  S
C920        C921   1.399       .  A
C921        C922   1.398       .  A
C921        H928   1.085       .  S
C922        S924   1.804       .  S
S923        H926   1.407       .  S
S924        H925   1.407       .  S
C929        C930   1.408       .  A
C929        C934   1.409       .  A
C930        C931   1.398       .  A
C930        H939   1.083       .  S
C931        C932   1.415       .  A
C931        S935   1.801       .  S
C932        C933   1.414       .  A
C933        C934   1.402       .  A
C933        H940   1.082       .  S
C934        S936   1.799       .  S
S935        H938   1.408       .  S
S936        H937   1.407       .  S
C941        C942   1.398       .  A
C941        C946   1.416       .  A
C942        C943   1.397       .  A
C942        H951   1.084       .  S
C943        C944   1.419       .  A
C943        S947   1.804       .  S
C944        C945   1.402       .  A
C945        C946   1.399       .  A
C945        H952   1.084       .  S
C946        S948   1.805       .  S
S947        H950   1.408       .  S
S948        H949   1.407       .  S
C953       C2170   1.398       .  A
C953       C2174   1.416       .  A
C954        C955   1.398   1_565  A
C954       C2169   1.398   1_565  A
C954        H963   1.084       .  S
C955        C956   1.419       .  A
C955        S959   1.804   1_545  S
C956        C957   1.402       .  A
C957        C958   1.401       .  A
C957        H964   1.084       .  S
C958       C2169   1.416       .  A
C958       S2176   1.804       .  S
S959        H962   1.407   1_565  S
S960       C2174   1.805       .  S
S960        H961   1.407       .  S
C965        C966   1.411       .  A
C965        C970   1.412       .  A
C966        C967   1.398       .  A
C966        H975   1.083       .  S
C967        C968   1.412       .  A
C967        S971   1.800       .  S
C968        C969   1.412       .  A
C969        C970   1.399       .  A
C969        H976   1.083       .  S
C970        S972   1.800       .  S
S971        H974   1.408       .  S
S972        H973   1.408       .  S
C977        C978   1.399       .  A
C977        C982   1.416       .  A
C978        C979   1.401       .  A
C978        H987   1.084       .  S
C979        C980   1.420       .  A
C979        S983   1.804       .  S
C980        C981   1.402       .  A
C981        C982   1.400       .  A
C981        H988   1.084       .  S
C982        S984   1.805       .  S
S983        H986   1.408       .  S
S984        H985   1.403       .  S
C989        C990   1.411       .  A
C989        C994   1.410       .  A
C990        C991   1.398       .  A
C990        H999   1.083       .  S
C991        C992   1.412       .  A
C991        S995   1.802       .  S
C992        C993   1.412       .  A
C993        C994   1.398       .  A
C993       H1000   1.082       .  S
C994        S996   1.802       .  S
S995        H998   1.408       .  S
S996        H997   1.408       .  S
C1001      C1002   1.409       .  A
C1001      C1006   1.410       .  A
C1002      C1003   1.397       .  A
C1002      H1011   1.083       .  S
C1003      C1004   1.411       .  A
C1003      S1007   1.799       .  S
C1004      C1005   1.411       .  A
C1005      C1006   1.399       .  A
C1005      H1012   1.083       .  S
C1006      S1008   1.802       .  S
S1007      H1010   1.407       .  S
S1008      H1009   1.408       .  S
C1013      C1014   1.410       .  A
C1013      C1018   1.410       .  A
C1014      C1015   1.401       .  A
C1014      H1023   1.083       .  S
C1015      C1016   1.415       .  A
C1015      S1019   1.801       .  S
C1016      C1017   1.413       .  A
C1017      C1018   1.399       .  A
C1017      H1024   1.083       .  S
C1018      S1020   1.802       .  S
S1019      H1022   1.408       .  S
S1020      H1021   1.408       .  S
C1025      C1026   1.401       .  A
C1025      C1030   1.422       .  A
C1026      C1027   1.400       .  A
C1026      H1035   1.084       .  S
C1027      C1028   1.416       .  A
C1027      S1031   1.805       .  S
C1028      C1029   1.396       .  A
C1029      C1030   1.396       .  A
C1029      H1036   1.084       .  S
C1030      S1032   1.805       .  S
S1031      H1034   1.407       .  S
S1032      H1033   1.408       .  S
C1037      C1633   1.481       .  S
C1037      C1038   1.402       .  A
C1037      C1042   1.419   1_565  A
C1038      C1039   1.402       .  A
C1038      H2263   1.084       .  S
C1039      C1040   1.415   1_565  A
C1039      S1043   1.804       .  S
C1040      C1041   1.398       .  A
C1041      C1042   1.399       .  A
C1041      H1048   1.085       .  S
C1042      S1044   1.804       .  S
S1043      H1046   1.404   1_565  S
S1044      H1045   1.408       .  S
H1047      C2254   1.084       .  S
C1049      C1050   1.410       .  A
C1049      C1054   1.411       .  A
C1050      C1051   1.399       .  A
C1050      H1059   1.084       .  S
C1051      C1052   1.408       .  A
C1051      S1055   1.803       .  S
C1052      C1053   1.405       .  A
C1053      C1054   1.395       .  A
C1053      H1060   1.084       .  S
C1054      S1056   1.802       .  S
S1055      H1058   1.407       .  S
S1056      H1057   1.408       .  S
C1061      C1062   1.410       .  A
C1061      C1066   1.413       .  A
C1062      C1063   1.400       .  A
C1062      H1071   1.084       .  S
C1063      C1064   1.412       .  A
C1063      S1067   1.802   1_545  S
C1064      C1065   1.411       .  A
C1065      C1066   1.401       .  A
C1065      H1072   1.084       .  S
C1066      S1068   1.802       .  S
S1067      H1070   1.408   1_565  S
S1068      H1069   1.407       .  S
C1073      C1074   1.397       .  A
C1073      C1078   1.417       .  A
C1074      C1075   1.399   1_655  A
C1074      H1083   1.086   1_655  S
C1075      C1076   1.426   1_455  A
C1075      S1079   1.803       .  S
C1076      C1077   1.404       .  A
C1077      C1078   1.400       .  A
C1077      H1084   1.085       .  S
C1078      S1080   1.804       .  S
S1079      H1082   1.405       .  S
S1080      H1081   1.407       .  S
C1085      C1086   1.399       .  A
C1085      C1090   1.418       .  A
C1086      C1087   1.396       .  A
C1086      H1095   1.084       .  S
C1087      C1088   1.415       .  A
C1087      S1091   1.802       .  S
C1088      C1089   1.399       .  A
C1089      C1090   1.400       .  A
C1089      H1096   1.084       .  S
C1090      S1092   1.804       .  S
S1091      H1094   1.407       .  S
S1092      H1093   1.408       .  S
C1097      C1098   1.414       .  A
C1097      C1102   1.416       .  A
C1098      C1099   1.400       .  A
C1098      H1107   1.084       .  S
C1099      C1100   1.408       .  A
C1099      S1103   1.804       .  S
C1100      C1101   1.406       .  A
C1101      C1102   1.401       .  A
C1101      H1108   1.085   1_655  S
C1102      S1104   1.799   1_655  S
S1103      H1106   1.407       .  S
S1104      H1105   1.407   1_455  S
C1109      C1110   1.410       .  A
C1109      C1114   1.410       .  A
C1110      C1111   1.397       .  A
C1110      H1119   1.084       .  S
C1111      C1112   1.407       .  A
C1111      S1115   1.800       .  S
C1112      C1113   1.406       .  A
C1113      C1114   1.396       .  A
C1113      H1120   1.084       .  S
C1114      S1116   1.802       .  S
S1115      H1118   1.406       .  S
S1116      H1117   1.407       .  S
C1121      C1122   1.407       .  A
C1121      C1126   1.411       .  A
C1122      C1123   1.400       .  A
C1122      H1131   1.083       .  S
C1123      C1124   1.411       .  A
C1123      S1127   1.802       .  S
C1124      C1125   1.409       .  A
C1125      C1126   1.403       .  A
C1125      H1132   1.083   1_655  S
C1126      S1128   1.803   1_655  S
S1127      H1130   1.407       .  S
S1128      H1129   1.407       .  S
C1133      C1134   1.404       .  A
C1133      C1138   1.408       .  A
C1134      C1135   1.400       .  A
C1134      H1143   1.084       .  S
C1135      C1136   1.415       .  A
C1135      S1139   1.801       .  S
C1136      C1137   1.410       .  A
C1137      C1138   1.398       .  A
C1137      H1144   1.083       .  S
C1138      S1140   1.804       .  S
S1139      H1142   1.408       .  S
S1140      H1141   1.406       .  S
C1145      C1146   1.398       .  A
C1145      C1150   1.415       .  A
C1146      C1147   1.396       .  A
C1146      H1155   1.085       .  S
C1147      C1148   1.417       .  A
C1147      S1151   1.805       .  S
C1148      C1149   1.400       .  A
C1149      C1150   1.399       .  A
C1149      H1156   1.084       .  S
C1150      S1152   1.804       .  S
S1151      H1154   1.407       .  S
S1152      H1153   1.407       .  S
C1157      C1241   1.488   1_545  S
C1157      C1158   1.412       .  A
C1157      C1162   1.413   1_545  A
C1158      C1159   1.401       .  A
C1158      H1167   1.084       .  S
C1159      C1160   1.409       .  A
C1159      S1163   1.799       .  S
C1160      C1161   1.408       .  A
C1161      C1162   1.398   1_545  A
C1161      H1168   1.084   1_545  S
C1162      S1164   1.801       .  S
S1163      H1166   1.407       .  S
S1164      H2381   1.408       .  S
H1165      S2380   1.407       .  S
C1169      C1170   1.398   1_545  A
C1169      C1174   1.419       .  A
C1170      C1171   1.399       .  A
C1170      H1179   1.084       .  S
C1171      C1172   1.426   1_565  A
C1171      S1175   1.803       .  S
C1172      C1173   1.404       .  A
C1173      C1174   1.401       .  A
C1173      H1180   1.084       .  S
C1174      S1176   1.803       .  S
S1175      H1178   1.406       .  S
S1176      H1177   1.405       .  S
C1181      C1182   1.396       .  A
C1181      C1186   1.411   1_545  A
C1182      C1183   1.397       .  A
C1182      H1191   1.081       .  S
C1183      C1184   1.416       .  A
C1183      S1187   1.811       .  S
C1184      C1185   1.401   1_545  A
C1185      C1186   1.400       .  A
C1185      H1192   1.083       .  S
C1186      S1188   1.808       .  S
S1187      H1190   1.407       .  S
S1188      H1189   1.407       .  S
C1193      C1194   1.409       .  A
C1193      C1198   1.413       .  A
C1194      C1195   1.396       .  A
C1194      H1203   1.084       .  S
C1195      C1196   1.408       .  A
C1195      S1199   1.803       .  S
C1196      C1197   1.406       .  A
C1197      C1198   1.398       .  A
C1197      H1204   1.084       .  S
C1198      S1200   1.802       .  S
S1199      H1202   1.407       .  S
S1200      H1201   1.408       .  S
C1205      C1206   1.400       .  A
C1205      C2426   1.416       .  A
C1206      C1207   1.403       .  A
C1206      H1215   1.083       .  S
C1207      C1208   1.416       .  A
C1207      S1211   1.809       .  S
C1208      C2425   1.399       .  A
C1209      C1210   1.397       .  A
C1209      C2424   1.399   1_545  A
C1209      H1216   1.084       .  S
C1210      C2421   1.417   1_545  A
C1210      S1212   1.804       .  S
S1211      H1214   1.407       .  S
S1212      H1213   1.406       .  S
O1217     Cu1225   2.034       .  S
O1217      C1227   1.282       .  A
O1218     Cu1225   2.041       .  S
O1219     Cu1225   1.972       .  S
O1219      C1229   1.272       .  A
O1220      C1230   1.272       .  A
O1221     Cu1226   2.024       .  S
O1221      C1230   1.281       .  A
O1222     Cu1226   2.032       .  S
O1223     Cu1226   1.981       .  S
O1223      C1228   1.273       .  A
O1224     Cu1226   1.977       .  S
C1227      C2421   1.477       .  S
C1228      C2385   1.476       .  S
C1229      C2409   1.479       .  S
C1230      C2397   1.466       .  S
O1232     Cu1239   1.970   1_565  S
O1232      C1242   1.271       .  A
O1233     Cu1239   2.033       .  S
O1233      C1243   1.283   1_545  A
O1234     Cu1239   2.040   1_565  S
O1234      C1244   1.283       .  A
O1235     Cu1240   1.976       .  S
O1235      C1244   1.273       .  A
O1236     Cu1240   1.979       .  S
O1236      C1243   1.272       .  A
O1237     Cu1240   2.034       .  S
O1237      C1242   1.282       .  A
O1238     Cu1240   2.042       .  S
O1238      C1241   1.283       .  A
Cu1239    Cu1240   2.370   1_545  S
C1242      C2361   1.468       .  S
C1243      C2424   1.477       .  S
C1244      C2352   1.490       .  S
O1245     Cu1253   2.032   1_455  S
O1245      C1255   1.282       .  A
O1246     Cu1253   2.033       .  S
O1246      C1256   1.282       .  A
O1247     Cu1253   1.973       .  S
O1247      C1257   1.273       .  A
O1248     Cu1253   1.981       .  S
O1248      C1258   1.272       .  A
O1249     Cu1254   2.050       .  S
O1249      C1258   1.285       .  A
O1250     Cu1254   2.054       .  S
O1250      C1257   1.284       .  A
O1251     Cu1254   1.967       .  S
O1251      C1256   1.271       .  A
O1252     Cu1254   1.962   1_455  S
O1252      C1255   1.271       .  A
Cu1253    Cu1254   2.368       .  S
C1255      C2325   1.478       .  S
C1256      C2412   1.471       .  S
C1257      C2313   1.499       .  S
C1258      C2340   1.486       .  S
O1259     Cu1267   1.980       .  S
O1259      C1269   1.272       .  A
O1260     Cu1267   1.977       .  S
O1260      C1270   1.272       .  A
O1261     Cu1267   2.034       .  S
O1261      C1271   1.282       .  A
O1262     Cu1267   2.038   1_455  S
O1262      C1272   1.283       .  A
O1263     Cu1268   1.968   1_455  S
O1263      C1272   1.270       .  A
O1264     Cu1268   1.968       .  S
O1264      C1271   1.271       .  A
O1265     Cu1268   2.051       .  S
O1265      C1270   1.285       .  A
O1266     Cu1268   2.042       .  S
O1266      C1269   1.284       .  A
Cu1267    Cu1268   2.373       .  S
C1269      C2289   1.481       .  S
C1270      C2337   1.485       .  S
C1271      C2364   1.471       .  S
C1272      C2301   1.474       .  S
O1273     Cu1281   2.032       .  S
O1273      C1283   1.282       .  A
O1274     Cu1281   2.042       .  S
O1274      C1284   1.283       .  A
O1275     Cu1281   1.986       .  S
O1275      C1285   1.272       .  A
O1276     Cu1281   1.986       .  S
O1276      C1286   1.274       .  A
O1277     Cu1282   2.038       .  S
O1277      C1286   1.283       .  A
O1278     Cu1282   2.045       .  S
O1278      C1285   1.283       .  A
O1279     Cu1282   1.961       .  S
O1279      C1284   1.270       .  A
O1280     Cu1282   1.957       .  S
O1280      C1283   1.269       .  A
Cu1281    Cu1282   2.372       .  S
C1283      C2400   1.472       .  S
C1284      C2268   1.472       .  S
C1285      C2256   1.476       .  S
C1286      C2277   1.488       .  S
O1287     Cu1295   1.960       .  S
O1287      C1297   1.270       .  A
O1288     Cu1295   1.962       .  S
O1288      C1298   1.271       .  A
O1289     Cu1295   2.047       .  S
O1289      C1299   1.284       .  A
O1290     Cu1295   2.046       .  S
O1290      C1300   1.284       .  A
O1291     Cu1296   1.976       .  S
O1291      C1300   1.272       .  A
O1292     Cu1296   1.972       .  S
O1292      C1299   1.272       .  A
O1293     Cu1296   2.035       .  S
O1293      C1298   1.282       .  A
O1294     Cu1296   2.037       .  S
O1294      C1297   1.283       .  A
Cu1295    Cu1296   2.370       .  S
C1297      C2241   1.474       .  S
C1298      C2376   1.477       .  S
C1299      C2229   1.486       .  S
C1300      C2280   1.487       .  S
O1301     Cu1309   2.038       .  S
O1301      C1311   1.283       .  A
O1302     Cu1309   2.040       .  S
O1302      C1312   1.283       .  A
O1303     Cu1309   1.971       .  S
O1303      C1313   1.271       .  A
O1304     Cu1309   1.958       .  S
O1304      C1314   1.270       .  A
O1305     Cu1310   2.035       .  S
O1305      C1314   1.282       .  A
O1306     Cu1310   2.033       .  S
O1306      C1313   1.283       .  A
O1307     Cu1310   1.972       .  S
O1307      C1312   1.272       .  A
O1308     Cu1310   1.966       .  S
O1308      C1311   1.272       .  A
Cu1309    Cu1310   2.369       .  S
C1311      C2217   1.482       .  S
C1312      C2205   1.489       .  S
C1313      C2265   1.479       .  S
C1314      C2328   1.472       .  S
O1315     Cu1323   1.973       .  S
O1315      C1325   1.271       .  A
O1316     Cu1323   1.966       .  S
O1316      C1326   1.271       .  A
O1317     Cu1323   2.029       .  S
O1317      C1327   1.281       .  A
O1318     Cu1323   2.043       .  S
O1318      C1328   1.284       .  A
O1319     Cu1324   1.974       .  S
O1319      C1328   1.272       .  A
O1320     Cu1324   1.977       .  S
O1320      C1327   1.273       .  A
O1321     Cu1324   2.032       .  S
O1321      C1326   1.282       .  A
O1322     Cu1324   2.034       .  S
O1322      C1325   1.282       .  A
Cu1323    Cu1324   2.373       .  S
C1325      C2304   1.468       .  S
C1326      C2244   1.467       .  S
C1327      C2220   1.485       .  S
C1328      C2196   1.481       .  S
O1329     Cu1337   1.968       .  S
O1329      C1339   1.272       .  A
O1330     Cu1337   1.974       .  S
O1330      C1340   1.273       .  A
O1331     Cu1337   2.032       .  S
O1331      C1341   1.281       .  A
O1332     Cu1337   2.033       .  S
O1332      C1342   1.282       .  A
O1333     Cu1338   1.981       .  S
O1333      C1342   1.272   1_545  A
O1334     Cu1338   1.985   1_565  S
O1334      C1341   1.273       .  A
O1335     Cu1338   2.030       .  S
O1335      C1340   1.281   1_545  A
O1336     Cu1338   2.044   1_565  S
O1336      C1339   1.283       .  A
Cu1337    Cu1338   2.370   1_565  S
C1339      C2145   1.486       .  S
C1340      C2181   1.487       .  S
C1341      C2157   1.470       .  S
C1342      C2169   1.474   1_565  S
O1343     Cu1351   2.039       .  S
O1343      C1353   1.282       .  A
O1344     Cu1351   2.033       .  S
O1344      C1354   1.282       .  A
O1345     Cu1351   1.963       .  S
O1346     Cu1351   1.969       .  S
O1346      C1356   1.271       .  A
O1347     Cu1352   2.036       .  S
O1347      C1356   1.283   1_545  A
O1348      C1355   1.281       .  A
O1349     Cu1352   1.968       .  S
O1349      C1354   1.272   1_545  A
Cu1351    Cu1352   2.371   1_565  S
C1354      C2184   1.485       .  S
C1355      C2124   1.476       .  S
C1356      C2133   1.479       .  S
O1357     Cu1365   1.977       .  S
O1357      C1367   1.272       .  A
O1358     Cu1365   1.975       .  S
O1358      C1368   1.273       .  A
O1359     Cu1365   2.040       .  S
O1359      C1369   1.283       .  A
O1360     Cu1365   2.042       .  S
O1360      C1370   1.283       .  A
O1361     Cu1366   1.974       .  S
O1361      C1370   1.272       .  A
O1362     Cu1366   1.970       .  S
O1362      C1369   1.271       .  A
O1363     Cu1366   2.039       .  S
O1363      C1368   1.283       .  A
O1364     Cu1366   2.039       .  S
O1364      C1367   1.283       .  A
Cu1365    Cu1366   2.372       .  S
C1367      C2073   1.479       .  S
C1368      C2097   1.484       .  S
C1369      C2160   1.473       .  S
C1370      C2088   1.475       .  S
O1371     Cu1379   2.036       .  S
O1371      C1381   1.283       .  A
O1372     Cu1379   2.034       .  S
O1372      C1382   1.282       .  A
O1373     Cu1379   1.975       .  S
O1373      C1383   1.272       .  A
O1374     Cu1379   1.971       .  S
O1374      C1384   1.272       .  A
O1375     Cu1380   2.043       .  S
O1375      C1384   1.284       .  A
O1376     Cu1380   2.038       .  S
O1376      C1383   1.283       .  A
O1377     Cu1380   1.957       .  S
O1377      C1382   1.271       .  A
O1378     Cu1380   1.969       .  S
O1378      C1381   1.271       .  A
Cu1379    Cu1380   2.368       .  S
C1381      C2136   1.474       .  S
C1382      C2061   1.482       .  S
C1383      C2100   1.482       .  S
C1384      C2049   1.490       .  S
O1385     Cu1393   2.024       .  S
O1385      C1395   1.281       .  A
O1386     Cu1393   2.025       .  S
O1386      C1396   1.281       .  A
O1387     Cu1393   1.974       .  S
O1387      C1397   1.272       .  A
O1388     Cu1393   1.979       .  S
O1388      C1398   1.272       .  A
O1389     Cu1394   2.041       .  S
O1389      C1398   1.283       .  A
O1390     Cu1394   2.033       .  S
O1390      C1397   1.283       .  A
O1391     Cu1394   1.965       .  S
O1391      C1396   1.272       .  A
O1392     Cu1394   1.966       .  S
O1392      C1395   1.271       .  A
Cu1393    Cu1394   2.372       .  S
C1395      C2025   1.468       .  S
C1396      C2064   1.476       .  S
C1397      C2037   1.476       .  S
C1398      C2013   1.484       .  S
O1399     Cu1407   1.977       .  S
O1399      C1409   1.270       .  A
O1400     Cu1407   1.971       .  S
O1400      C1410   1.271       .  A
O1401     Cu1407   2.042       .  S
O1401      C1411   1.283       .  A
O1402     Cu1407   2.038       .  S
O1402      C1412   1.284       .  A
O1403     Cu1408   1.978       .  S
O1403      C1412   1.272       .  A
O1404     Cu1408   1.967       .  S
O1404      C1411   1.271       .  A
O1405     Cu1408   2.034       .  S
O1405      C1410   1.283       .  A
O1406     Cu1408   2.041       .  S
O1406      C1409   1.285       .  A
Cu1407    Cu1408   2.369       .  S
C1409      C1989   1.493       .  S
C1410      C2040   1.476       .  S
C1411      C2001   1.473       .  S
C1412      C2085   1.483       .  S
O1413     Cu1421   2.035       .  S
O1413      C1423   1.282       .  A
O1414     Cu1421   2.038       .  S
O1414      C1424   1.282       .  A
O1415     Cu1421   1.970       .  S
O1415      C1425   1.271       .  A
O1416     Cu1421   1.959   1_455  S
O1416      C1426   1.271       .  A
O1417     Cu1422   2.029   1_455  S
O1417      C1426   1.281       .  A
O1418     Cu1422   2.028       .  S
O1418      C1425   1.282       .  A
O1419     Cu1422   1.974       .  S
O1419      C1424   1.273       .  A
O1420     Cu1422   1.977       .  S
O1420      C1423   1.273       .  A
Cu1421    Cu1422   2.369       .  S
C1423      C1977   1.481       .  S
C1424      C1965   1.490       .  S
C1425      C2028   1.478       .  S
C1426      C2121   1.470       .  S
O1427     Cu1435   1.982       .  S
O1427      C1437   1.273       .  A
O1428     Cu1435   1.984       .  S
O1428      C1438   1.273       .  A
O1429     Cu1435   2.040   1_455  S
O1429      C1439   1.283       .  A
O1430     Cu1435   2.036       .  S
O1430      C1440   1.283       .  A
O1431     Cu1436   1.972       .  S
O1431      C1440   1.271       .  A
O1432     Cu1436   1.970   1_455  S
O1432      C1439   1.272       .  A
O1433     Cu1436   2.036       .  S
O1433      C1438   1.282       .  A
O1434     Cu1436   2.032       .  S
O1434      C1437   1.282       .  A
Cu1435    Cu1436   2.373       .  S
C1437      C1980   1.478       .  S
C1438      C1953   1.475       .  S
C1439      C2172   1.477       .  S
C1440      C2004   1.480       .  S
O1441     Cu1449   2.037       .  S
O1441      C1451   1.282       .  A
O1442     Cu1449   2.041       .  S
O1442      C1452   1.283       .  A
O1443     Cu1449   1.972       .  S
O1443      C1453   1.271       .  A
O1444     Cu1449   1.971       .  S
O1444      C1454   1.271       .  A
O1445     Cu1450   2.035       .  S
O1445      C1454   1.283       .  A
O1446     Cu1450   2.044       .  S
O1446      C1453   1.283       .  A
O1447     Cu1450   1.981       .  S
O1447      C1452   1.272       .  A
O1448     Cu1450   1.978       .  S
O1448      C1451   1.273       .  A
Cu1449    Cu1450   2.374       .  S
C1451      C1941   1.477       .  S
C1452      C2016   1.474       .  S
C1453      C1932   1.474       .  S
C1454      C1917   1.478       .  S
O1455     Cu1463   1.970       .  S
O1455      C1465   1.271       .  A
O1456     Cu1463   1.973       .  S
O1456      C1466   1.273       .  A
O1457     Cu1463   2.028       .  S
O1457      C1467   1.281       .  A
O1458     Cu1463   2.033       .  S
O1458      C1468   1.282       .  A
O1459     Cu1464   1.981       .  S
O1459      C1468   1.272       .  A
O1460     Cu1464   1.985       .  S
O1460      C1467   1.273       .  A
O1461     Cu1464   2.038       .  S
O1461      C1466   1.282       .  A
O1462     Cu1464   2.048       .  S
O1462      C1465   1.283       .  A
Cu1463    Cu1464   2.371       .  S
C1465      C1905   1.474       .  S
C1466      C1893   1.493       .  S
C1467      C1944   1.476       .  S
C1468      C2349   1.475       .  S
O1469     Cu1477   1.970   1_455  S
O1469      C1479   1.271   1_545  A
O1470     Cu1477   1.966   1_565  S
O1470      C1480   1.271       .  A
O1471     Cu1477   2.041       .  S
O1471      C1481   1.283   1_545  A
O1472     Cu1477   2.044   1_565  S
O1472      C1482   1.285       .  A
O1473     Cu1478   1.977       .  S
O1473      C1482   1.270   1_455  A
O1474     Cu1478   1.976       .  S
O1474      C1481   1.272   1_455  A
O1475     Cu1478   2.042   1_655  S
O1475      C1480   1.283       .  A
O1476     Cu1478   2.048       .  S
O1476      C1479   1.284       .  A
Cu1477    Cu1478   2.366   1_645  S
C1480      C1896   1.487       .  S
C1481      C1884   1.482       .  S
C1482      C2292   1.494       .  S
O1483     Cu1491   2.039       .  S
O1483      C1493   1.283   1_545  A
O1484      C1494   1.282       .  A
O1485     Cu1491   1.977       .  S
O1485      C1495   1.272   1_545  A
O1487     Cu1492   2.034       .  S
O1487      C1496   1.281   1_565  A
O1488     Cu1492   2.037       .  S
O1488      C1495   1.283       .  A
O1489     Cu1492   1.971   1_455  S
O1490     Cu1492   1.979       .  S
O1490      C1493   1.272       .  A
Cu1491    Cu1492   2.369   1_545  S
C1493      C1929   1.479       .  S
C1494      C1857   1.477       .  S
C1495      C1881   1.482       .  S
O1497     Cu1505   1.973       .  S
O1497      C1507   1.271       .  A
O1498     Cu1505   1.977       .  S
O1498      C1508   1.271       .  A
O1499     Cu1505   2.047       .  S
O1499      C1509   1.285       .  A
O1500     Cu1505   2.049       .  S
O1500      C1510   1.284       .  A
O1501     Cu1506   1.971       .  S
O1501      C1510   1.270       .  A
O1502     Cu1506   1.967       .  S
O1502      C1509   1.271       .  A
O1503     Cu1506   2.032       .  S
O1503      C1508   1.283       .  A
O1504     Cu1506   2.039       .  S
O1504      C1507   1.284       .  A
Cu1505    Cu1506   2.372       .  S
C1507      C1872   1.481       .  S
C1508      C1833   1.479       .  S
C1509      C1848   1.481       .  S
C1510      C2193   1.472       .  S
O1511     Cu1519   2.030       .  S
O1511      C1521   1.281       .  A
O1512     Cu1519   2.036       .  S
O1512      C1522   1.283       .  A
O1513     Cu1519   1.968       .  S
O1513      C1523   1.271       .  A
O1514     Cu1519   1.975       .  S
O1514      C1524   1.272       .  A
O1515     Cu1520   2.042       .  S
O1515      C1524   1.283       .  A
O1516     Cu1520   2.046       .  S
O1516      C1523   1.284       .  A
O1517     Cu1520   1.974       .  S
O1517      C1522   1.272       .  A
O1518     Cu1520   1.972       .  S
O1518      C1521   1.272       .  A
Cu1519    Cu1520   2.371       .  S
C1521      C1860   1.472       .  S
C1522      C1821   1.481       .  S
C1523      C2112   1.480       .  S
C1524      C1845   1.484       .  S
O1525     Cu1533   2.046       .  S
O1525      C1535   1.284       .  A
O1526     Cu1533   2.037       .  S
O1526      C1536   1.283       .  A
O1527     Cu1533   1.964       .  S
O1527      C1537   1.270       .  A
O1528     Cu1533   1.975       .  S
O1528      C1538   1.271       .  A
O1529     Cu1534   2.038       .  S
O1529      C1538   1.283       .  A
O1530     Cu1534   2.038       .  S
O1530      C1537   1.283       .  A
O1531     Cu1534   1.973       .  S
O1531      C1536   1.272       .  A
O1532     Cu1534   1.971       .  S
O1532      C1535   1.272       .  A
Cu1533    Cu1534   2.367       .  S
C1535      C2052   1.492       .  S
C1536      C1809   1.494       .  S
C1537      C1920   1.470       .  S
C1538      C1824   1.476       .  S
O1539     Cu1547   1.978       .  S
O1539      C1549   1.273       .  A
O1540     Cu1547   1.971       .  S
O1540      C1550   1.273       .  A
O1541     Cu1547   2.034       .  S
O1541      C1551   1.282       .  A
O1542     Cu1547   2.034       .  S
O1542      C1552   1.283       .  A
O1543     Cu1548   1.988       .  S
O1543      C1552   1.273       .  A
O1544     Cu1548   1.968       .  S
O1544      C1551   1.271       .  A
O1545     Cu1548   2.041       .  S
O1545      C1550   1.283       .  A
O1546     Cu1548   2.040       .  S
O1546      C1549   1.283       .  A
Cu1547    Cu1548   2.366       .  S
C1549      C2232   1.496       .  S
C1550      C1812   1.494       .  S
C1551      C1836   1.471       .  S
C1552      C1908   1.480       .  S
O1553     Cu1561   1.975       .  S
O1553      C1563   1.272       .  A
O1554     Cu1561   1.983       .  S
O1554      C1564   1.274       .  A
O1555     Cu1561   2.045       .  S
O1555      C1565   1.284       .  A
O1556     Cu1561   2.043       .  S
O1556      C1566   1.283       .  A
O1557     Cu1562   1.955       .  S
O1557      C1566   1.270       .  A
O1558     Cu1562   1.973       .  S
O1558      C1565   1.271       .  A
O1559     Cu1562   2.034       .  S
O1559      C1564   1.282       .  A
O1560     Cu1562   2.035       .  S
O1560      C1563   1.282       .  A
Cu1561    Cu1562   2.368       .  S
C1563      C1797   1.481       .  S
C1564      C2148   1.494       .  S
C1565      C1788   1.479       .  S
C1566      C1773   1.478       .  S
O1567     Cu1575   2.041       .  S
O1567      C1577   1.283       .  A
O1568     Cu1575   2.036       .  S
O1568      C1578   1.283       .  A
O1569     Cu1575   1.963       .  S
O1569      C1579   1.271       .  A
O1570     Cu1575   1.973       .  S
O1570      C1580   1.271       .  A
O1571     Cu1576   2.036       .  S
O1571      C1580   1.283       .  A
O1572     Cu1576   2.039       .  S
O1572      C1579   1.283       .  A
O1573     Cu1576   1.975       .  S
O1573      C1578   1.272       .  A
O1574     Cu1576   1.975       .  S
O1574      C1577   1.273       .  A
Cu1575    Cu1576   2.371       .  S
C1577      C2208   1.492       .  S
C1578      C1800   1.479       .  S
C1579      C1752   1.473       .  S
C1580      C1764   1.472       .  S
O1581     Cu1589   1.972       .  S
O1581      C1591   1.271       .  A
O1582     Cu1589   1.972       .  S
O1582      C1592   1.271       .  A
O1583     Cu1589   2.044       .  S
O1583      C1593   1.284       .  A
O1584     Cu1589   2.035       .  S
O1584      C1594   1.282       .  A
O1585     Cu1590   1.979       .  S
O1585      C1594   1.272       .  A
O1586     Cu1590   1.972       .  S
O1586      C1593   1.271       .  A
O1587     Cu1590   2.041       .  S
O1587      C1592   1.283       .  A
O1588     Cu1590   2.044       .  S
O1588      C1591   1.284       .  A
Cu1589    Cu1590   2.372       .  S
C1591      C1992   1.487       .  S
C1592      C1737   1.474       .  S
C1593      C1713   1.477       .  S
C1594      C1725   1.476       .  S
O1595     Cu1603   2.041       .  S
O1595      C1605   1.283       .  A
O1596     Cu1603   2.040       .  S
O1596      C1606   1.283       .  A
O1597     Cu1603   1.975       .  S
O1597      C1607   1.272       .  A
O1598     Cu1603   1.971       .  S
O1598      C1608   1.271       .  A
O1599     Cu1604   2.041       .  S
O1599      C1608   1.284       .  A
O1600     Cu1604   2.040       .  S
O1600      C1607   1.283       .  A
O1601     Cu1604   1.961       .  S
O1601      C1606   1.270       .  A
O1602     Cu1604   1.964       .  S
O1602      C1605   1.272       .  A
Cu1603    Cu1604   2.368       .  S
C1605      C1704   1.490       .  S
C1606      C1689   1.477       .  S
C1607      C1740   1.476       .  S
C1608      C2388   1.485       .  S
O1609     Cu1617   1.977       .  S
O1609      C1619   1.272       .  A
O1610     Cu1617   1.976       .  S
O1610      C1620   1.271       .  A
O1611     Cu1617   2.031       .  S
O1611      C1621   1.282       .  A
O1612     Cu1617   2.022       .  S
O1612      C1622   1.280       .  A
O1613     Cu1618   1.976   1_565  S
O1613      C1622   1.273       .  A
O1614     Cu1618   1.971       .  S
O1614      C1621   1.273   1_545  A
O1615     Cu1618   2.040   1_565  S
O1615      C1620   1.282       .  A
O1616     Cu1618   2.037       .  S
O1616      C1619   1.282   1_545  A
Cu1617    Cu1618   2.369   1_565  S
C1619      C1677   1.476       .  S
C1620      C2076   1.470       .  S
C1621      C1728   1.489       .  S
C1622      C1776   1.485       .  S
O1623     Cu1631   2.045       .  S
O1623      C1633   1.284       .  A
O1624     Cu1631   2.041       .  S
O1624      C1634   1.283       .  A
O1625     Cu1631   1.967       .  S
O1626     Cu1631   1.967       .  S
O1626      C1636   1.271       .  A
O1627      C1636   1.284       .  A
O1628     Cu1632   2.037       .  S
O1628      C1635   1.284       .  A
O1629      C1634   1.271   1_545  A
O1630     Cu1632   1.973       .  S
C1634      C1680   1.476       .  S
C1635      C1692   1.472       .  S
C1636      C1761   1.479       .  S
O1637     Cu1645   1.974       .  S
O1637      C1647   1.271       .  A
O1638     Cu1645   1.977   1_455  S
O1638      C1648   1.272       .  A
O1639     Cu1645   2.047       .  S
O1639      C1649   1.285       .  A
O1640     Cu1645   2.031       .  S
O1640      C1650   1.283       .  A
O1641     Cu1646   1.979       .  S
O1641      C1650   1.272       .  A
O1642     Cu1646   1.974       .  S
O1642      C1649   1.271       .  A
O1643     Cu1646   2.044   1_455  S
O1643      C1648   1.283       .  A
O1644     Cu1646   2.043       .  S
O1644      C1647   1.283       .  A
Cu1645    Cu1646   2.372       .  S
C1647      C1716   1.472       .  S
C1648      C1785   1.474       .  S
C1649      C1956   1.489       .  S
C1650      C1668   1.479       .  S
O1651     Cu1659   2.028       .  S
O1651      C1661   1.281       .  A
O1652     Cu1659   2.025   1_455  S
O1652      C1662   1.281       .  A
O1653     Cu1659   1.976       .  S
O1653      C1663   1.272       .  A
O1654     Cu1659   1.984       .  S
O1654      C1664   1.273       .  A
O1655     Cu1660   2.042       .  S
O1655      C1664   1.284       .  A
O1656     Cu1660   2.034       .  S
O1656      C1663   1.282       .  A
O1657     Cu1660   1.970   1_455  S
O1657      C1662   1.271       .  A
O1658     Cu1660   1.980       .  S
O1658      C1661   1.273       .  A
Cu1659    Cu1660   2.371       .  S
C1661      C1701   1.482       .  S
C1662      C1749   1.465       .  S
C1663      C1665   1.479       .  S
C1664      C2316   1.488       .  S
C1665      C1666   1.400       .  A
C1665      C1670   1.418       .  A
C1666      C1667   1.400   1_554  A
C1666      H1675   1.085       .  S
C1667      C1668   1.421       .  A
C1667      S1671   1.804       .  S
C1668      C1669   1.400       .  A
C1669      C1670   1.397   1_556  A
C1669      H1676   1.085   1_655  S
C1670      S1672   1.804   1_655  S
S1671      H1674   1.405       .  S
S1672      H1673   1.408       .  S
C1677      C1678   1.400   1_565  A
C1677      C1682   1.417       .  A
C1678      C1679   1.400   1_556  A
C1678      H1687   1.084       .  S
C1679      C1680   1.418   1_545  A
C1680      C1681   1.399       .  A
C1681      C1682   1.399   1_554  A
C1681      H1688   1.084       .  S
C1682      S1684   1.804       .  S
S1683      H1686   1.403       .  S
S1684      H1685   1.407       .  S
C1689      C1690   1.400       .  A
C1689      C1694   1.419       .  A
C1690      C1691   1.400       .  A
C1690      H1699   1.084       .  S
C1691      C1692   1.419       .  A
C1691      S1695   1.806       .  S
C1692      C1693   1.398       .  A
C1693      C1694   1.396       .  A
C1693      H1700   1.084       .  S
C1694      S1696   1.805       .  S
S1695      H1698   1.403       .  S
S1696      H1697   1.408       .  S
C1701      C1702   1.409       .  A
C1701      C1706   1.409       .  A
C1702      C1703   1.400       .  A
C1702      H1711   1.084       .  S
C1703      C1704   1.413       .  A
C1703      S1707   1.799       .  S
C1704      C1705   1.412       .  A
C1705      C1706   1.396       .  A
C1705      H1712   1.083       .  S
C1706      S1708   1.800       .  S
S1707      H1710   1.408       .  S
S1708      H1709   1.407       .  S
C1713      C1714   1.400       .  A
C1713      C1718   1.418       .  A
C1714      C1715   1.400       .  A
C1714      H1723   1.084       .  S
C1715      C1716   1.416       .  A
C1715      S1719   1.805       .  S
C1716      C1717   1.399       .  A
C1717      C1718   1.400       .  A
C1717      H1724   1.084       .  S
C1718      S1720   1.804       .  S
S1719      H1722   1.403       .  S
S1720      H1721   1.407       .  S
C1725      C1726   1.406       .  A
C1725      C1730   1.409       .  A
C1726      C1727   1.400       .  A
C1726      H1735   1.084       .  S
C1729      C1730   1.399       .  A
C1729      H1736   1.084       .  S
C1730      S1732   1.803       .  S
S1731      H1734   1.408       .  S
S1732      H1733   1.407       .  S
C1737      C1738   1.400       .  A
C1737      C1742   1.416       .  A
C1738      C1739   1.399   1_556  A
C1738      H1747   1.084       .  S
C1739      C1740   1.417       .  A
C1739      S1743   1.805       .  S
C1740      C1741   1.401       .  A
C1741      C1742   1.400   1_554  A
C1741      H1748   1.084       .  S
C1742      S1744   1.805       .  S
S1743      H1746   1.407       .  S
S1744      H1745   1.407       .  S
C1749      C1750   1.405       .  A
C1749      C1754   1.406       .  A
C1750      C1751   1.399       .  A
C1750      H1759   1.084       .  S
C1751      C1752   1.411       .  A
C1751      S1755   1.803       .  S
C1752      C1753   1.407       .  A
C1753      C1754   1.396       .  A
C1753      H1760   1.084       .  S
C1754      S1756   1.801       .  S
S1755      H1758   1.406       .  S
S1756      H1757   1.405       .  S
C1761      C1762   1.401       .  A
C1761      C1766   1.419       .  A
C1762      C1763   1.401       .  A
C1762      H1771   1.085       .  S
C1763      C1764   1.416       .  A
C1763      S1767   1.804       .  S
C1764      C1765   1.398       .  A
C1765      C1766   1.398       .  A
C1765      H1772   1.085       .  S
C1766      S1768   1.805       .  S
S1767      H1770   1.407       .  S
S1768      H1769   1.408       .  S
C1773      C1774   1.407       .  A
C1773      C1778   1.408       .  A
C1774      C1775   1.395       .  A
C1774      H1783   1.085       .  S
C1775      C1776   1.413       .  A
C1775      S1779   1.800       .  S
C1776      C1777   1.412       .  A
C1777      C1778   1.399       .  A
C1777      H1784   1.083   1_565  S
C1778      S1780   1.802   1_565  S
S1779      H1782   1.408       .  S
S1780      H1781   1.407   1_545  S
C1785      C1786   1.399       .  A
C1785      C1790   1.415       .  A
C1786      C1787   1.401       .  A
C1786      H1795   1.085       .  S
C1787      C1788   1.419       .  A
C1787      S1791   1.804       .  S
C1788      C1789   1.401       .  A
C1789      C1790   1.400       .  A
C1789      H1796   1.085       .  S
C1790      S1792   1.804       .  S
S1791      H1794   1.407       .  S
S1792      H1793   1.407       .  S
C1797      C1798   1.408       .  A
C1797      C1802   1.411       .  A
C1798      C1799   1.399       .  A
C1798      H1807   1.084       .  S
C1799      C1800   1.411   1_556  A
C1799      S1803   1.802   1_556  S
C1800      C1801   1.407   1_554  A
C1801      C1802   1.399       .  A
C1801      H1808   1.084   1_556  S
C1802      S1804   1.800       .  S
S1803      H1806   1.407       .  S
S1804      H1805   1.407       .  S
C1809      C1810   1.414       .  A
C1809      C1814   1.412       .  A
C1810      C1811   1.406       .  A
C1810      H1819   1.082       .  S
C1811      C1812   1.414       .  A
C1811      S1815   1.810       .  S
C1812      C1813   1.412       .  A
C1813      C1814   1.396       .  A
C1813      H1820   1.083       .  S
C1814      S1816   1.800       .  S
S1815      H1818   1.407       .  S
S1816      H1817   1.407       .  S
C1821      C1822   1.401       .  A
C1821      C1826   1.420       .  A
C1822      C1823   1.399       .  A
C1822      H1831   1.084       .  S
C1823      C1824   1.418       .  A
C1823      S1827   1.804       .  S
C1824      C1825   1.399       .  A
C1825      C1826   1.399       .  A
C1825      H1832   1.085       .  S
C1826      S1828   1.804       .  S
S1827      H1830   1.407       .  S
S1828      H1829   1.408       .  S
C1833      C1834   1.402       .  A
C1833      C1838   1.421       .  A
C1834      C1835   1.397       .  A
C1834      H1843   1.084       .  S
C1835      C1836   1.414       .  A
C1835      S1839   1.805       .  S
C1836      C1837   1.399       .  A
C1837      C1838   1.399       .  A
C1837      H1844   1.084       .  S
C1838      S1840   1.804       .  S
S1839      H1842   1.407       .  S
S1840      H1841   1.404       .  S
C1845      C1846   1.410       .  A
C1845      C1850   1.410       .  A
C1846      C1847   1.400       .  A
C1846      H1855   1.083       .  S
C1847      C1848   1.409       .  A
C1847      S1851   1.802       .  S
C1848      C1849   1.410       .  A
C1849      C1850   1.401       .  A
C1849      H1856   1.083       .  S
C1850      S1852   1.799       .  S
S1851      H1854   1.408       .  S
S1852      H1853   1.407       .  S
C1857      C1858   1.408       .  A
C1857      C1862   1.412       .  A
C1858      C1859   1.397       .  A
C1858      H1867   1.083       .  S
C1859      C1860   1.408       .  A
C1859      S1863   1.800       .  S
C1860      C1861   1.406       .  A
C1861      C1862   1.399       .  A
C1861      H1868   1.083       .  S
C1862      S1864   1.802       .  S
S1863      H1866   1.406       .  S
S1864      H1865   1.408       .  S
C1869      C1870   1.406       .  A
C1869      C1874   1.409       .  A
C1870      C1871   1.398       .  A
C1870      H1879   1.084       .  S
C1871      C1872   1.411       .  A
C1871      S1875   1.802       .  S
C1872      C1873   1.410       .  A
C1873      C1874   1.401       .  A
C1873      H1880   1.084       .  S
C1874      S1876   1.801       .  S
S1875      H1878   1.408       .  S
C1881      C1882   1.408   1_565  A
C1881      C1886   1.412   1_655  A
C1882      C1883   1.400       .  A
C1882      H1891   1.083       .  S
C1883      C1884   1.412   1_545  A
C1883      S1887   1.802       .  S
C1884      C1885   1.408   1_655  A
C1885      C1886   1.399       .  A
C1885      H1892   1.084       .  S
C1886      S1888   1.803       .  S
S1887      H1890   1.407       .  S
S1888      H1889   1.408       .  S
C1893      C1894   1.413       .  A
C1893      C1898   1.414       .  A
C1894      C1895   1.398       .  A
C1894      H1903   1.083       .  S
C1895      C1896   1.410       .  A
C1895      S1899   1.802       .  S
C1896      C1897   1.410       .  A
C1897      C1898   1.399       .  A
C1897      H1904   1.084   1_565  S
C1898      S1900   1.801   1_565  S
S1899      H1902   1.408       .  S
S1900      H1901   1.406       .  S
C1905      C1906   1.401       .  A
C1905      C1910   1.414       .  A
C1906      C1907   1.404       .  A
C1906      H1915   1.085       .  S
C1907      C1908   1.418       .  A
C1907      S1911   1.804       .  S
C1908      C1909   1.401       .  A
C1909      C1910   1.397       .  A
C1909      H1916   1.085       .  S
C1910      S1912   1.804       .  S
S1911      H1914   1.407       .  S
S1912      H1913   1.407       .  S
C1917      C1918   1.401       .  A
C1917      C1922   1.418       .  A
C1918      C1919   1.397       .  A
C1918      H1927   1.083       .  S
C1919      C1920   1.415       .  A
C1919      S1923   1.805       .  S
C1920      C1921   1.398       .  A
C1921      C1922   1.402       .  A
C1921      H1928   1.083       .  S
C1922      S1924   1.810       .  S
S1923      H1926   1.407       .  S
S1924      H1925   1.407       .  S
C1929      C1930   1.400       .  A
C1929      C1934   1.419       .  A
C1930      C1931   1.399       .  A
C1930      H1939   1.084       .  S
C1931      C1932   1.416       .  A
C1931      S1935   1.803       .  S
C1932      C1933   1.399       .  A
C1933      C1934   1.401       .  A
C1933      H1940   1.084       .  S
C1934      S1936   1.803       .  S
S1935      H1938   1.406       .  S
S1936      H1937   1.407       .  S
C1941      C1942   1.401       .  A
C1941      C1946   1.417       .  A
C1942      C1943   1.400       .  A
C1942      H1951   1.082       .  S
C1943      C1944   1.417       .  A
C1943      S1947   1.803       .  S
C1944      C1945   1.399       .  A
C1945      C1946   1.397       .  A
C1945      H1952   1.082       .  S
C1946      S1948   1.804       .  S
S1947      H1950   1.407       .  S
S1948      H1949   1.406       .  S
C1953      C1954   1.398   1_655  A
C1953      C1958   1.414       .  A
C1954      C1955   1.403       .  A
C1954      H1963   1.082       .  S
C1955      C1956   1.423   1_455  A
C1955      S1959   1.811       .  S
C1956      C1957   1.404       .  A
C1957      C1958   1.400       .  A
C1957      H1964   1.084       .  S
C1958      S1960   1.804       .  S
S1959      H1962   1.407       .  S
S1960      H1961   1.406       .  S
C1965      C1966   1.411       .  A
C1965      C1970   1.413       .  A
C1967      S1971   1.800       .  S
C1968      C1969   1.411       .  A
C1969      C1970   1.399       .  A
C1969      H1976   1.083       .  S
C1970      S1972   1.800       .  S
S1971      H1974   1.407   1_655  S
S1972      H1973   1.402       .  S
C1977      C1978   1.407       .  A
C1977      C1982   1.413   1_655  A
C1978      C1979   1.398       .  A
C1978      H1987   1.084       .  S
C1979      C1980   1.410       .  A
C1979      S1983   1.803       .  S
C1980      C1981   1.407   1_655  A
C1981      C1982   1.401       .  A
C1981      H1988   1.084       .  S
C1982      S1984   1.802       .  S
S1983      H1986   1.407       .  S
S1984      H1985   1.407       .  S
C1989      C1990   1.402       .  A
C1989      C1994   1.425       .  A
C1990      C1991   1.398       .  A
C1990      H1999   1.084       .  S
C1991      C1992   1.421       .  A
C1991      S1995   1.804       .  S
C1992      C1993   1.400       .  A
C1993      C1994   1.401       .  A
C1993      H2000   1.084       .  S
C1994      S1996   1.803       .  S
S1995      H1998   1.408       .  S
S1996      H1997   1.408       .  S
C2001      C2002   1.398       .  A
C2001      C2006   1.416       .  A
C2002      C2003   1.399       .  A
C2002      H2011   1.084       .  S
C2003      C2004   1.421       .  A
C2003      S2007   1.804       .  S
C2004      C2005   1.401       .  A
C2005      C2006   1.398       .  A
C2005      H2012   1.084       .  S
C2006      S2008   1.804       .  S
S2007      H2010   1.407       .  S
S2008      H2009   1.406       .  S
C2013      C2014   1.403       .  A
C2013      C2018   1.420       .  A
C2014      C2015   1.401       .  A
C2014      H2023   1.084       .  S
C2015      C2016   1.415       .  A
C2015      S2019   1.804       .  S
C2016      C2017   1.398       .  A
C2017      C2018   1.400       .  A
C2017      H2024   1.084       .  S
C2018      S2020   1.804       .  S
S2019      H2022   1.406       .  S
S2020      H2021   1.408       .  S
C2025      C2026   1.397       .  A
C2025      C2030   1.416       .  A
C2026      C2027   1.395       .  A
C2026      H2035   1.083       .  S
C2027      C2028   1.419       .  A
C2027      S2031   1.801       .  S
C2028      C2029   1.401       .  A
C2029      C2030   1.397       .  A
C2029      H2036   1.083       .  S
C2030      S2032   1.805       .  S
S2031      H2034   1.405       .  S
S2032      H2033   1.407       .  S
C2037      C2038   1.400       .  A
C2037      C2042   1.418       .  A
C2038      C2039   1.398       .  A
C2038      H2047   1.084       .  S
C2039      C2040   1.417       .  A
C2039      S2043   1.804       .  S
C2040      C2041   1.400       .  A
C2041      C2042   1.398       .  A
C2041      H2048   1.084       .  S
C2042      S2044   1.804       .  S
S2043      H2046   1.407       .  S
S2044      H2045   1.407       .  S
C2049      C2050   1.412       .  A
C2049      C2054   1.411       .  A
C2050      C2051   1.401       .  A
C2050      H2059   1.083       .  S
C2051      C2052   1.412       .  A
C2051      S2055   1.801       .  S
C2052      C2053   1.413       .  A
C2053      C2054   1.399       .  A
C2053      H2060   1.082       .  S
C2054      S2056   1.802       .  S
S2055      H2058   1.408       .  S
S2056      H2057   1.408       .  S
C2061      C2062   1.412       .  A
C2061      C2066   1.412       .  A
C2062      C2063   1.395       .  A
C2062      H2071   1.083       .  S
C2063      C2064   1.408       .  A
C2063      S2067   1.800       .  S
C2064      C2065   1.408       .  A
C2065      C2066   1.396       .  A
C2065      H2072   1.084       .  S
C2066      S2068   1.801       .  S
S2067      H2070   1.407       .  S
S2068      H2069   1.408       .  S
C2073      C2074   1.402       .  A
C2073      C2078   1.419       .  A
C2074      C2075   1.400       .  A
C2074      H2083   1.084       .  S
C2075      C2076   1.413       .  A
C2075      S2079   1.804       .  S
C2076      C2077   1.399       .  A
C2077      C2078   1.400       .  A
C2077      H2084   1.085       .  S
C2078      S2080   1.804       .  S
S2079      H2082   1.406       .  S
S2080      H2081   1.407       .  S
C2085      C2086   1.402       .  A
C2085      C2090   1.420       .  A
C2086      C2087   1.398       .  A
C2086      H2095   1.084       .  S
C2087      C2088   1.415       .  A
C2087      S2091   1.805       .  S
C2088      C2089   1.400       .  A
C2089      C2090   1.402       .  A
C2089      H2096   1.083       .  S
C2090      S2092   1.804       .  S
S2091      H2094   1.407       .  S
S2092      H2093   1.408       .  S
C2097      C2098   1.409       .  A
C2097      C2102   1.412       .  A
C2098      C2099   1.399       .  A
C2098      H2107   1.083       .  S
C2099      C2100   1.411       .  A
C2099      S2103   1.802       .  S
C2100      C2101   1.409       .  A
C2101      C2102   1.400       .  A
C2101      H2108   1.083       .  S
C2102      S2104   1.802       .  S
S2103      H2106   1.408       .  S
S2104      H2105   1.408       .  S
C2109      C2110   1.397       .  A
C2109      C2114   1.414       .  A
C2110      C2111   1.398       .  A
C2110      H2119   1.084       .  S
C2111      C2112   1.419       .  A
C2111      S2115   1.805       .  S
C2112      C2113   1.402       .  A
C2113      C2114   1.401       .  A
C2113      H2120   1.084       .  S
S2115      H2118   1.408       .  S
S2116      H2117   1.406       .  S
C2121      C2122   1.405       .  A
C2121      C2126   1.409       .  A
C2122      C2123   1.394       .  A
C2122      H2131   1.083       .  S
C2123      C2124   1.411       .  A
C2123      S2127   1.803       .  S
C2124      C2125   1.410       .  A
C2125      C2126   1.398       .  A
C2126      S2128   1.803       .  S
S2127      H2130   1.408       .  S
S2128      H2129   1.407       .  S
C2133      C2134   1.401       .  A
C2133      C2138   1.420       .  A
C2134      C2135   1.398       .  A
C2134      H2143   1.084   1_565  S
C2135      C2136   1.417       .  A
C2135      S2139   1.805       .  S
C2136      C2137   1.399       .  A
C2137      C2138   1.399       .  A
C2137      H2144   1.085       .  S
C2138      S2140   1.804       .  S
S2139      H2142   1.407       .  S
S2140      H2141   1.408       .  S
C2145      C2146   1.409       .  A
C2145      C2150   1.409       .  A
C2146      C2147   1.399       .  A
C2146      H2155   1.083       .  S
C2147      C2148   1.415       .  A
C2147      S2151   1.801       .  S
C2148      C2149   1.414       .  A
C2149      C2150   1.401       .  A
C2149      H2156   1.082       .  S
C2150      S2152   1.800   1_565  S
S2151      H2154   1.407       .  S
S2152      H2153   1.407       .  S
C2157      C2158   1.400       .  A
C2157      C2162   1.413       .  A
C2158      C2159   1.399       .  A
C2158      H2167   1.084       .  S
C2159      C2160   1.416       .  A
C2159      S2163   1.804       .  S
C2160      C2161   1.400       .  A
C2161      C2162   1.399       .  A
C2161      H2168   1.084       .  S
C2162      S2164   1.800       .  S
S2163      H2166   1.407       .  S
S2164      H2165   1.407       .  S
C2170      C2171   1.397       .  A
C2170      H2179   1.084       .  S
C2171      C2172   1.418       .  A
C2171      S2175   1.804       .  S
C2172      C2173   1.401       .  A
C2173      C2174   1.400       .  A
C2173      H2180   1.084       .  S
S2175      H2178   1.406       .  S
S2176      H2177   1.407       .  S
C2181      C2182   1.411       .  A
C2181      C2186   1.414   1_565  A
C2182      C2183   1.397       .  A
C2182      H2191   1.083       .  S
C2183      C2184   1.411       .  A
C2183      S2187   1.802       .  S
C2184      C2185   1.409   1_565  A
C2185      C2186   1.398       .  A
C2185      H2192   1.083       .  S
C2186      S2188   1.802       .  S
S2187      H2190   1.408       .  S
S2188      H2189   1.399       .  S
C2193      C2194   1.400       .  A
C2193      C2198   1.415       .  A
C2194      C2195   1.401       .  A
C2194      H2203   1.084       .  S
C2195      C2196   1.418       .  A
C2195      S2199   1.804       .  S
C2196      C2197   1.401       .  A
C2197      C2198   1.400       .  A
C2197      H2204   1.084       .  S
C2198      S2200   1.805       .  S
S2199      H2202   1.408       .  S
S2200      H2201   1.402       .  S
C2205      C2206   1.412       .  A
C2205      C2210   1.411       .  A
C2206      C2207   1.400       .  A
C2206      H2215   1.083       .  S
C2207      C2208   1.413       .  A
C2207      S2211   1.802       .  S
C2208      C2209   1.412       .  A
C2209      C2210   1.399       .  A
C2209      H2216   1.082       .  S
C2210      S2212   1.802       .  S
S2211      H2214   1.408       .  S
S2212      H2213   1.408       .  S
C2217      C2218   1.409       .  A
C2217      C2222   1.410       .  A
C2218      C2219   1.397       .  A
C2218      H2227   1.083       .  S
C2219      C2220   1.412       .  A
C2219      S2223   1.799       .  S
C2220      C2221   1.411       .  A
C2221      C2222   1.399       .  A
C2221      H2228   1.083       .  S
C2222      S2224   1.802       .  S
S2223      H2226   1.407       .  S
S2224      H2225   1.408       .  S
C2229      C2230   1.409       .  A
C2229      C2234   1.410       .  A
C2230      C2231   1.400       .  A
C2230      H2239   1.083       .  S
C2231      C2232   1.415       .  A
C2231      S2235   1.801       .  S
C2232      C2233   1.414       .  A
C2233      C2234   1.401       .  A
C2233      H2240   1.083       .  S
C2234      S2236   1.802       .  S
S2235      H2238   1.408       .  S
S2236      H2237   1.408       .  S
C2241      C2242   1.401       .  A
C2241      C2246   1.419       .  A
C2242      C2243   1.398       .  A
C2242      H2251   1.084       .  S
C2243      C2244   1.415       .  A
C2243      S2247   1.805       .  S
C2244      C2245   1.397       .  A
C2245      C2246   1.396       .  A
C2245      H2252   1.084       .  S
C2246      S2248   1.805       .  S
S2247      H2250   1.407       .  S
S2248      H2249   1.408       .  S
C2253      C2254   1.402       .  A
C2253      C2258   1.419       .  A
C2254      C2255   1.404       .  A
C2255      C2256   1.416       .  A
C2255      S2259   1.804       .  S
C2256      C2257   1.398       .  A
C2257      C2258   1.400       .  A
C2257      H2264   1.085       .  S
C2258      S2260   1.805       .  S
S2259      H2262   1.404       .  S
S2260      H2261   1.408       .  S
C2265      C2266   1.410       .  A
C2265      C2270   1.411       .  A
C2266      C2267   1.400       .  A
C2266      H2275   1.084       .  S
C2267      C2268   1.409       .  A
C2267      S2271   1.803       .  S
C2268      C2269   1.405       .  A
C2269      C2270   1.396       .  A
C2269      H2276   1.084       .  S
C2270      S2272   1.803       .  S
S2271      H2274   1.407       .  S
S2272      H2273   1.408       .  S
C2277      C2278   1.410       .  A
C2277      C2282   1.412       .  A
C2278      C2279   1.401       .  A
C2278      H2287   1.084       .  S
C2279      C2280   1.412       .  A
C2279      S2283   1.802       .  S
C2280      C2281   1.410       .  A
C2281      C2282   1.400       .  A
C2281      H2288   1.084       .  S
C2282      S2284   1.802       .  S
S2283      H2286   1.408       .  S
S2284      H2285   1.407       .  S
C2289      C2290   1.398   1_655  A
C2289      C2294   1.418       .  A
C2290      C2291   1.400       .  A
C2290      H2299   1.085       .  S
C2291      C2292   1.426   1_455  A
C2291      S2295   1.803       .  S
C2292      C2293   1.404       .  A
C2293      C2294   1.400       .  A
C2293      H2300   1.085       .  S
C2294      S2296   1.805       .  S
S2295      H2298   1.406       .  S
S2296      H2297   1.406       .  S
C2301      C2302   1.400       .  A
C2301      C2306   1.418       .  A
C2302      C2303   1.397       .  A
C2302      H2311   1.084       .  S
C2303      C2304   1.414       .  A
C2303      S2307   1.802       .  S
C2304      C2305   1.398       .  A
C2305      C2306   1.399       .  A
C2305      H2312   1.084       .  S
C2306      S2308   1.804       .  S
S2307      H2310   1.406       .  S
S2308      H2309   1.407       .  S
C2313      C2314   1.414       .  A
C2313      C2318   1.416       .  A
C2314      C2315   1.399       .  A
C2314      H2323   1.084       .  S
C2315      C2316   1.410       .  A
C2315      S2319   1.803       .  S
C2316      C2317   1.410       .  A
C2317      C2318   1.404       .  A
C2317      H2324   1.085       .  S
C2318      S2320   1.800       .  S
S2319      H2322   1.408       .  S
S2320      H2321   1.408       .  S
C2325      C2326   1.411       .  A
C2325      C2330   1.411       .  A
C2326      C2327   1.397       .  A
C2326      H2335   1.084       .  S
C2327      C2328   1.406       .  A
C2327      S2331   1.800       .  S
C2328      C2329   1.407       .  A
C2329      C2330   1.396       .  A
C2329      H2336   1.084       .  S
C2330      S2332   1.802       .  S
S2331      H2334   1.406       .  S
S2332      H2333   1.407       .  S
C2337      C2338   1.409       .  A
C2337      C2342   1.411       .  A
C2338      C2339   1.401       .  A
C2338      H2347   1.083       .  S
C2339      C2340   1.411       .  A
C2339      S2343   1.802       .  S
C2340      C2341   1.410       .  A
C2341      C2342   1.403       .  A
C2341      H2348   1.083   1_655  S
C2342      S2344   1.802   1_655  S
S2343      H2346   1.407       .  S
S2344      H2345   1.407       .  S
C2349      C2350   1.405       .  A
C2349      C2354   1.408       .  A
C2350      C2351   1.401       .  A
C2350      H2359   1.084       .  S
C2351      C2352   1.416       .  A
C2351      S2355   1.801   1_565  S
C2352      C2353   1.412       .  A
C2353      C2354   1.398       .  A
C2353      H2360   1.083       .  S
C2354      S2356   1.804       .  S
S2355      H2358   1.408       .  S
S2356      H2357   1.407       .  S
C2361      C2362   1.398       .  A
C2361      C2366   1.415       .  A
C2362      C2363   1.398       .  A
C2362      H2371   1.085       .  S
C2363      C2364   1.417       .  A
C2363      S2367   1.805       .  S
C2364      C2365   1.399       .  A
C2365      C2366   1.398       .  A
C2365      H2372   1.084       .  S
C2366      S2368   1.804       .  S
S2367      H2370   1.406       .  S
S2368      H2369   1.406       .  S
C2373      C2374   1.410       .  A
C2373      C2378   1.413       .  A
C2374      C2375   1.397       .  A
C2374      H2383   1.084       .  S
C2375      C2376   1.408       .  A
C2375      S2379   1.799       .  S
C2376      C2377   1.408       .  A
C2377      C2378   1.397       .  A
C2377      H2384   1.084       .  S
C2378      S2380   1.802       .  S
S2379      H2382   1.407       .  S
C2385      C2386   1.398       .  A
C2385      C2390   1.415       .  A
C2386      C2387   1.400       .  A
C2386      H2395   1.084       .  S
C2387      C2388   1.423       .  A
C2387      S2391   1.804       .  S
C2388      C2389   1.402       .  A
C2389      C2390   1.399       .  A
C2389      H2396   1.083       .  S
C2390      S2392   1.800       .  S
S2391      H2394   1.408       .  S
S2392      H2393   1.404       .  S
C2397      C2398   1.396       .  A
C2397      C2402   1.412       .  A
C2398      C2399   1.397       .  A
C2398      H2407   1.079       .  S
C2399      C2400   1.417       .  A
C2399      S2403   1.811       .  S
C2400      C2401   1.401       .  A
C2401      C2402   1.401       .  A
C2401      H2408   1.083       .  S
C2402      S2404   1.809       .  S
S2403      H2406   1.407       .  S
S2404      H2405   1.407       .  S
C2409      C2410   1.409       .  A
C2409      C2414   1.412       .  A
C2410      C2411   1.398       .  A
C2410      H2419   1.084       .  S
C2411      C2412   1.408       .  A
C2411      S2415   1.803       .  S
C2412      C2413   1.405       .  A
C2413      C2414   1.397       .  A
C2413      H2420   1.084       .  S
C2414      S2416   1.802   1_565  S
S2415      H2418   1.407       .  S
S2416      H2417   1.408   1_545  S
C2421      C2422   1.401       .  A
C2422      C2423   1.405       .  A
C2422      H2431   1.083       .  S
C2423      C2424   1.417       .  A
C2423      S2427   1.809       .  S
C2425      C2426   1.396       .  A
C2425      H2432   1.084       .  S
C2426      S2428   1.804       .  S
S2427      H2430   1.407       .  S
S2428      H2429   1.406       .  S
