geometry optimzed in LAMMPS
_audit_creation_date              2020-12-01 
_audit_creation_method            'lammps2cif' 
_symmetry_space_group_name_H-M    'P1' 
_symmetry_Int_Tables_number       1 
_symmetry_cell_setting            triclinic 
loop_ 
_symmetry_equiv_pos_as_xyz 
  x,y,z 
_cell_length_a                    17.78055384 
_cell_length_b                    84.99291170253552 
_cell_length_c                    42.975074888777385 
_cell_angle_alpha                 90.53307060103785 
_cell_angle_beta                  90.40800388330307 
_cell_angle_gamma                 90.01471369809201 
loop_ 
_atom_site_label 
_atom_site_type_symbol 
_atom_site_fract_x 
_atom_site_fract_y 
_atom_site_fract_z 
_atom_site_charge 
O1          O  0.00657990  0.93553958  0.41389698    -0.72400
O2          O  0.97338772  0.93783978  0.50191788    -0.72600
O3          O  0.96971980  0.95851275  0.45500015    -0.72500
O4          O  0.00722782  0.91488063  0.46119675    -0.72500
O5          O  0.12698291  0.91942841  0.46626627    -0.72400
O6          O  0.08721016  0.96356552  0.46473647    -0.72500
O7          O  0.09337349  0.94148253  0.50850077    -0.72400
O8          O  0.12376831  0.94145616  0.42213634    -0.72600
V9          V  0.99141124  0.93680949  0.45802958     1.35200
V10         V  0.10546881  0.94141600  0.46519260     1.35200
C11         C  0.07177202  0.93806733  0.40313944     0.76800
C12         C  0.02915803  0.93970707  0.52014165     0.76900
C13         C  0.02106579  0.96853114  0.45962022     0.76800
C14         C  0.07304542  0.90968498  0.46503170     0.76700
O15         O  0.20052395  0.81379104  0.42828217    -0.72400
O16         O  0.21268987  0.81676548  0.51662231    -0.72600
O17         O  0.22687616  0.79345559  0.47446401    -0.72500
O18         O  0.18845086  0.83714940  0.47010948    -0.72500
O19         O  0.06857790  0.83289356  0.47427675    -0.72400
O20         O  0.10712808  0.78869934  0.47677162    -0.72500
O21         O  0.09354854  0.81169942  0.51947519    -0.72400
O22         O  0.08013219  0.80990177  0.43161964    -0.72600
V23         V  0.20480269  0.81519547  0.47247782     1.35200
V24         V  0.08963295  0.81086794  0.47547565     1.35200
C25         C  0.13753610  0.81175731  0.41494478     0.76800
C26         C  0.15502064  0.81452976  0.53319544     0.76900
C27         C  0.17406838  0.78359795  0.47642570     0.76800
C28         C  0.12233155  0.84252159  0.47092950     0.76700
O29         O  0.22345574  0.93449087  0.26424987    -0.72400
O30         O  0.26884485  0.93157774  0.17718588    -0.72600
O31         O  0.26822716  0.95469734  0.22011800    -0.72500
O32         O  0.22737020  0.91107733  0.22169279    -0.72500
O33         O  0.11140070  0.91524557  0.20837975    -0.72400
O34         O  0.15066494  0.95957480  0.21120629    -0.72500
O35         O  0.15214347  0.93705830  0.16677987    -0.72400
O36         O  0.10557924  0.93774696  0.25237040    -0.72600
V37         V  0.24474489  0.93301810  0.22059201     1.35200
V38         V  0.13225192  0.93735057  0.20986239     1.35200
C39         C  0.15590178  0.93640385  0.27295173     0.76800
C40         C  0.21736213  0.93399076  0.15716045     0.76900
C41         C  0.21679774  0.96469643  0.21639973     0.76800
C42         C  0.16320828  0.90556233  0.21510164     0.76700
O43         O  0.04273566  0.81022371  0.26824809    -0.72400
O44         O  0.02496012  0.81269699  0.17995584    -0.72600
O45         O  0.00690186  0.78987084  0.22210441    -0.72500
O46         O  0.05651637  0.83298140  0.22566651    -0.72500
O47         O  0.17430133  0.82761529  0.21783661    -0.72400
O48         O  0.12530082  0.78359108  0.22206025    -0.72500
O49         O  0.14080992  0.80479158  0.17604470    -0.72400
O50         O  0.16262091  0.80641600  0.26345385    -0.72600
V51         V  0.03504535  0.81129478  0.22399030     1.35200
V52         V  0.14863364  0.80567115  0.21990062     1.35200
C53         C  0.10666808  0.80817515  0.28093000     0.76800
C54         C  0.08050174  0.80907201  0.16304934     0.76900
C55         C  0.05675105  0.77933527  0.22221396     0.76800
C56         C  0.12259289  0.83778330  0.22138818     0.76700
O57         O  0.20121552  0.43581205  0.80612525    -0.72400
O58         O  0.23197853  0.43790945  0.71841063    -0.72600
O59         O  0.23413689  0.45874606  0.76551346    -0.72500
O60         O  0.20186485  0.41490608  0.75883713    -0.72500
O61         O  0.08178025  0.41875338  0.75317119    -0.72400
O62         O  0.11553086  0.46301399  0.75727262    -0.72500
O63         O  0.11184582  0.44127304  0.71191855    -0.72400
O64         O  0.08241616  0.44043438  0.79872348    -0.72600
V65         V  0.21500350  0.43691898  0.76216345     1.35200
V66         V  0.10022530  0.44080944  0.75546550     1.35200
C67         C  0.13605927  0.43780218  0.81730851     0.76800
C68         C  0.17640320  0.43993893  0.70025709     0.76900
C69         C  0.18122120  0.46843225  0.76177850     0.76800
C70         C  0.13679838  0.40931930  0.75476339     0.76700
O71         O  0.02738921  0.31313835  0.79764933    -0.72400
O72         O  0.99589838  0.31600253  0.70991097    -0.72600
O73         O  0.99073762  0.29289868  0.75143979    -0.72500
O74         O  0.02859769  0.33634237  0.75601967    -0.72500
O75         O  0.14760589  0.33244085  0.74852808    -0.72400
O76         O  0.10954689  0.28811725  0.74440695    -0.72500
O77         O  0.11513910  0.31167239  0.70312179    -0.72400
O78         O  0.14594237  0.30901744  0.78957264    -0.72600
V79         V  0.01299798  0.31449384  0.75367409     1.35200
V80         V  0.12726665  0.31035416  0.74654916     1.35200
C81         C  0.09297090  0.31077869  0.80852552     0.76800
C82         C  0.05118015  0.31445005  0.69168009     0.76900
C83         C  0.04258647  0.28310736  0.74675156     0.76800
C84         C  0.09371916  0.34193415  0.75331814     0.76700
O85         O  0.00263041  0.43346306  0.96035301    -0.72400
O86         O  0.96961656  0.43517932  0.04808350    -0.72600
O87         O  0.95492043  0.45571072  0.00064954    -0.72500
O88         O  0.01420238  0.41312727  0.00761636    -0.72500
O89         O  0.13076435  0.42022979  0.01376792    -0.72400
O90         O  0.06993906  0.46326385  0.00904040    -0.72500
O91         O  0.08551037  0.44224363  0.05481410    -0.72400
O92         O  0.11709550  0.44128983  0.96808785    -0.72600
V93         V  0.98748086  0.43455438  0.00429704     1.35200
V94         V  0.09855317  0.44163611  0.01129414     1.35200
C95         C  0.06610736  0.43705337  0.94921345     0.76800
C96         C  0.02316400  0.43859178  0.06655108     0.76900
C97         C  0.00185342  0.46678500  0.00360319     0.76800
C98         C  0.08208745  0.40936329  0.01182245     0.76700
O99         O  0.09073900  0.33295806  0.00481427    -0.72400
O100        O  0.13093236  0.28881135  0.99875509    -0.72600
O101        O  0.12172967  0.31006311  0.04526447    -0.72500
O102        O  0.09644788  0.31175744  0.95840328    -0.72500
O103        O  0.21565361  0.31641909  0.95265176    -0.72400
O104        O  0.24069979  0.31507801  0.04076298    -0.72500
O105        O  0.24982467  0.29405668  0.99428810    -0.72400
O106        O  0.20987436  0.33760646  0.99931300    -0.72600
V107        V  0.11227087  0.31097372  0.00169057     1.35200
V108        V  0.22669520  0.31569637  0.99681069     1.35200
C109        C  0.14409358  0.34281128  0.00284593     0.76800
C110        C  0.19800223  0.28397193  0.99575502     0.76900
C111        C  0.18487959  0.31220876  0.05801648     0.76800
C112        C  0.15089011  0.31450360  0.94068576     0.76700
O113        O  0.10100689  0.18530199  0.53050657    -0.72400
O114        O  0.07444673  0.18763875  0.44230140    -0.72600
O115        O  0.10585423  0.16469736  0.48272647    -0.72500
O116        O  0.06617620  0.20809659  0.49032088    -0.72500
O117        O  0.18495884  0.21334210  0.48561590    -0.72400
O118        O  0.22505630  0.16925571  0.47721959    -0.72500
O119        O  0.19368549  0.19263241  0.43778990    -0.72400
O120        O  0.22018303  0.18990092  0.52461382    -0.72600
V121        V  0.08918548  0.18652767  0.48633810     1.35200
V122        V  0.20362507  0.19123173  0.48137648     1.35200
C123        C  0.16595262  0.18707178  0.54240100     0.76800
C124        C  0.13048645  0.19038369  0.42506958     0.76900
C125        C  0.17148832  0.15944831  0.47905330     0.76800
C126        C  0.11817117  0.21815235  0.48996262     0.73500
O127        O  0.29816702  0.06590898  0.51526161    -0.72400
O128        O  0.31199842  0.06506117  0.42669553    -0.72600
O129        O  0.28579715  0.08734475  0.46970736    -0.72500
O130        O  0.32713189  0.04377614  0.47194643    -0.72500
O131        O  0.20790946  0.03854548  0.46804182    -0.72400
O132        O  0.16596295  0.08254672  0.46655757    -0.72500
O133        O  0.19238849  0.06025470  0.42351384    -0.72400
O134        O  0.17862426  0.06093837  0.51127026    -0.72600
V135        V  0.30344544  0.06542437  0.47087164     1.35200
V136        V  0.18856208  0.06063530  0.46746399     1.35200
C137        C  0.23527194  0.06377304  0.52825881     0.76800
C138        C  0.25409575  0.06249992  0.40999524     0.76900
C139        C  0.21934550  0.09242393  0.46750383     0.76800
C140        C  0.27520263  0.03370281  0.47011200     0.76700
O141        O  0.25595203  0.08359266  0.72547953    -0.72400
O142        O  0.21607343  0.03928751  0.72205756    -0.72600
O143        O  0.24974539  0.06143365  0.68022710    -0.72500
O144        O  0.22528381  0.06144776  0.76745846    -0.72500
O145        O  0.10664876  0.06668240  0.76225804    -0.72400
O146        O  0.13054487  0.06575406  0.67375825    -0.72500
O147        O  0.09696415  0.04446139  0.71739242    -0.72400
O148        O  0.13696219  0.08806608  0.71860137    -0.72600
V149        V  0.23447458  0.06152646  0.72367750     1.35200
V150        V  0.12009606  0.06613974  0.71805839     1.35200
C151        C  0.20240981  0.09338534  0.72306042     0.76800
C152        C  0.14883877  0.03440902  0.71955997     0.76900
C153        C  0.19480841  0.06331104  0.66195168     0.76800
C154        C  0.16266449  0.06415905  0.78001573     0.76700
O155        O  0.18470349  0.17074314  0.73425098    -0.72400
O156        O  0.22435917  0.21506196  0.73806956    -0.72600
O157        O  0.18415477  0.19418186  0.69327579    -0.72500
O158        O  0.22107953  0.19154628  0.77938052    -0.72500
O159        O  0.34047584  0.18809348  0.77127503    -0.72400
O160        O  0.30089090  0.18877216  0.68378021    -0.72500
O161        O  0.00018670  0.20843620  0.72713787    -0.72400
O162        O  0.30404896  0.16658699  0.72763531    -0.72600
V163        V  0.20586698  0.19283148  0.73609220     1.35200
V164        V  0.31943428  0.18853645  0.72765313     1.35200
C165        C  0.23852901  0.16114439  0.73023570     0.76800
C166        C  0.29064856  0.22010686  0.73368946     0.76900
C167        C  0.23495797  0.19154635  0.67367891     0.76800
C168        C  0.28632366  0.18942362  0.79014131     0.76700
O169        O  0.16688998  0.53738736  0.99588834    -0.72400
O170        O  0.11838740  0.58143210  0.99398920    -0.72600
O171        O  0.15370396  0.55938304  0.95106679    -0.72500
O172        O  0.12915091  0.55931808  0.03838433    -0.72500
O173        O  0.24674400  0.56513674  0.04491527    -0.72400
O174        O  0.27186155  0.56505816  0.95690532    -0.72500
O175        O  0.23705305  0.58667305  0.00002589    -0.72400
O176        O  0.28441973  0.54358397  0.00205943    -0.72600
V177        V  0.14418686  0.55948005  0.99491412     1.35200
V178        V  0.25761123  0.56499560  0.00083631     1.35200
C179        C  0.23458666  0.53308000  0.00011401     0.76800
C180        C  0.17062567  0.59155511  0.99661219     0.76900
C181        C  0.21654691  0.56225149  0.93890721     0.76800
C182        C  0.18345613  0.56207663  0.05673175     0.76700
O183        O  0.19838395  0.66816180  0.98604561    -0.72400
O184        O  0.18067900  0.71287772  0.98318886    -0.72600
O185        O  0.20011311  0.69136421  0.02823549    -0.72500
O186        O  0.18141075  0.68960407  0.94085527    -0.72500
O187        O  0.05990924  0.68857686  0.94483628    -0.72400
O188        O  0.07982293  0.68811985  0.03316588    -0.72500
O189        O  0.06030479  0.71059413  0.98989984    -0.72400
O190        O  0.07703538  0.66607556  0.98817051    -0.72600
V191        V  0.18778694  0.69045835  0.98469393     1.35200
V192        V  0.07150255  0.68840331  0.98892335     1.35200
C193        C  0.14059524  0.65945170  0.98728908     0.76800
C194        C  0.11693117  0.71935660  0.98623108     0.76900
C195        C  0.14403846  0.68977565  0.04570763     0.76800
C196        C  0.11775206  0.68900385  0.92780001     0.76700
O197        O  0.18100185  0.58155405  0.24921471    -0.72400
O198        O  0.14427007  0.53743815  0.25324563    -0.72600
O199        O  0.17767106  0.55784252  0.20793203    -0.72500
O200        O  0.15092975  0.56126795  0.29467132    -0.72500
O201        O  0.03048644  0.56427556  0.28810538    -0.72400
O202        O  0.05929875  0.56285238  0.20018692    -0.72500
O203        O  0.02605473  0.54170084  0.24411614    -0.72400
O204        O  0.06097731  0.58549010  0.24403067    -0.72600
V205        V  0.16114298  0.55956848  0.25113169     1.35200
V206        V  0.04646498  0.56349297  0.24423668     1.35200
C207        C  0.12661323  0.59104147  0.24587386     0.76800
C208        C  0.07843194  0.53203594  0.24898999     0.76900
C209        C  0.12396857  0.56007460  0.18918302     0.76800
C210        C  0.08675302  0.56333208  0.30625828     0.76700
O211        O  0.18963591  0.71137741  0.23279359    -0.72400
O212        O  0.13564725  0.66843561  0.24536113    -0.72600
O213        O  0.18180180  0.69238922  0.28222587    -0.72500
O214        O  0.14253124  0.68748385  0.19610724    -0.72500
O215        O  0.26100464  0.68254513  0.18863681    -0.72400
O216        O  0.29448644  0.68340975  0.27594855    -0.72500
O217        O  0.25057869  0.66157695  0.23493108    -0.72400
O218        O  0.30688581  0.70434081  0.22994637    -0.72600
V219        V  0.16448898  0.68979454  0.23902670     1.35200
V220        V  0.27603377  0.68310350  0.23239818     1.35200
C221        C  0.25816697  0.71514008  0.22993712     0.76800
C222        C  0.18444843  0.65770693  0.24206787     0.76900
C223        C  0.24358393  0.68812781  0.29412863     0.76800
C224        C  0.19563648  0.68462304  0.17760996     0.76700
O225        O  0.07774258  0.93868238  0.76045797    -0.72400
O226        O  0.08584925  0.93561778  0.67148875    -0.72600
O227        O  0.10898172  0.95858704  0.71359649    -0.72500
O228        O  0.38651018  0.91446300  0.71725145    -0.72500
O229        O  0.26898109  0.92032532  0.71028349    -0.72400
O230        O  0.32272295  0.96394562  0.71219429    -0.72500
O231        O  0.30181514  0.94225543  0.66722976    -0.72400
O232        O  0.28608123  0.94228832  0.75477460    -0.72600
V233        V  0.08070139  0.93721943  0.71591772     1.35200
V234        V  0.29716589  0.94209399  0.71115023     1.35200
C235        C  0.34257455  0.94019197  0.77210538     0.76800
C236        C  0.02824337  0.93880405  0.65506431     0.76900
C237        C  0.05898731  0.96906737  0.71263048     0.76800
C238        C  0.31925411  0.90992488  0.71436167     0.76700
O239        O  0.19631683  0.81695460  0.77279018    -0.72400
O240        O  0.14794379  0.81621684  0.68631950    -0.72600
O241        O  0.14939561  0.79482665  0.73209161    -0.72500
O242        O  0.19335182  0.83825183  0.72712359    -0.72500
O243        O  0.31143292  0.83299453  0.71982698    -0.72400
O244        O  0.26360461  0.78921822  0.71859371    -0.72500
O245        O  0.26601488  0.81234577  0.67599055    -0.72400
O246        O  0.31072915  0.81014880  0.76206509    -0.72600
V247        V  0.17394276  0.81643355  0.72939700     1.35200
V248        V  0.28569829  0.81121428  0.71926762     1.35200
C249        C  0.26223069  0.81382349  0.78220570     0.76800
C250        C  0.19974601  0.81479326  0.66645174     0.76900
C251        C  0.19834007  0.78454370  0.72573453     0.76800
C252        C  0.25976702  0.84307420  0.72346977     0.76700
O253        O  0.22685273  0.93656512  0.91730368    -0.72400
O254        O  0.20184517  0.93679177  0.00560682    -0.72600
O255        O  0.18842635  0.95832048  0.96019983    -0.72500
O256        O  0.23702446  0.91507296  0.96283762    -0.72500
O257        O  0.35581476  0.92049506  0.96733685    -0.72400
O258        O  0.30561575  0.96444684  0.96768268    -0.72500
O259        O  0.32048598  0.94192748  0.01133442    -0.72400
O260        O  0.34390120  0.94302372  0.92375317    -0.72600
V261        V  0.21588363  0.93682092  0.96155806     1.35200
V262        V  0.32921842  0.94240557  0.96739333     1.35200
C263        C  0.29023548  0.93967048  0.90544530     0.76800
C264        C  0.25772582  0.93909779  0.02362917     0.76900
C265        C  0.23795884  0.96883323  0.96355746     0.76800
C266        C  0.30380987  0.91028065  0.96551591     0.76700
O267        O  0.40751981  0.81490353  0.92439408    -0.72400
O268        O  0.11673054  0.81788471  0.01124997    -0.72600
O269        O  0.11477975  0.79591125  0.96614476    -0.72500
O270        O  0.40981556  0.83657916  0.97053967    -0.72500
O271        O  0.28923863  0.83316692  0.97375800    -0.72400
O272        O  0.32074694  0.78873814  0.97697721    -0.72500
O273        O  0.31754979  0.81222980  0.01870012    -0.72400
O274        O  0.28935312  0.80973936  0.93169546    -0.72600
V275        V  0.42148778  0.81437762  0.96854844     1.35200
V276        V  0.30652648  0.81101006  0.97506557     1.35200
C277        C  0.34245376  0.81240038  0.91314082     0.76800
C278        C  0.38245545  0.81299706  0.03050938     0.76900
C279        C  0.38547485  0.78303961  0.97199621     0.76800
C280        C  0.34475542  0.84249541  0.97247836     0.76700
O281        O  0.04044825  0.58316242  0.75398218    -0.72400
O282        O  0.31375875  0.53981745  0.75184583    -0.72600
O283        O  0.03837651  0.56015898  0.71073517    -0.72500
O284        O  0.32004964  0.56254885  0.79528591    -0.72500
O285        O  0.20312814  0.56849805  0.78626536    -0.72400
O286        O  0.24025815  0.56533287  0.69891257    -0.72500
O287        O  0.19639408  0.54528979  0.74391435    -0.72400
O288        O  0.24517345  0.58879587  0.74138216    -0.72600
V289        V  0.33602284  0.56175738  0.75185756     1.35200
V290        V  0.22346951  0.56691126  0.74275249     1.35200
C291        C  0.31120647  0.59369113  0.74685851     0.76800
C292        C  0.24669392  0.53505817  0.74831306     0.76900
C293        C  0.30629036  0.56285047  0.68902747     0.76800
C294        C  0.25566426  0.56584294  0.80559147     0.76700
O295        O  0.11500130  0.68554122  0.68815208    -0.72400
O296        O  0.15101538  0.68847275  0.77574652    -0.72600
O297        O  0.11134336  0.66532284  0.73613611    -0.72500
O298        O  0.15730891  0.70852018  0.72798638    -0.72500
O299        O  0.04119947  0.71461602  0.73763988    -0.72400
O300        O  0.32134602  0.67103314  0.73978722    -0.72500
O301        O  0.03183232  0.69293901  0.78233820    -0.72400
O302        O  0.32976103  0.69294715  0.69560817    -0.72600
V303        V  0.13144712  0.68706826  0.73207613     1.35200
V304        V  0.01853134  0.69263937  0.73891744     1.35200
C305        C  0.05048354  0.68869741  0.67708326     0.76800
C306        C  0.09638306  0.69094424  0.79390371     0.76900
C307        C  0.04457067  0.66059742  0.73917164     0.76800
C308        C  0.10808942  0.71898693  0.73235971     0.76700
O309        O  0.02405663  0.53795617  0.49833482    -0.72400
O310        O  0.29861834  0.58201137  0.49490962    -0.72600
O311        O  0.00770142  0.55958312  0.45347157    -0.72500
O312        O  0.31125232  0.56009838  0.53916840    -0.72500
O313        O  0.10935352  0.56662795  0.54567451    -0.72400
O314        O  0.12753093  0.56412988  0.45710035    -0.72500
O315        O  0.09718956  0.58705547  0.49814376    -0.72400
O316        O  0.14202038  0.54370469  0.50451151    -0.72600
V317        V  0.00264878  0.55997725  0.49730906     1.35200
V318        V  0.11680396  0.56527441  0.50128236     1.35200
C319        C  0.09121188  0.53335950  0.50225540     0.76800
C320        C  0.35233831  0.59185323  0.49513431     0.76900
C321        C  0.06987110  0.56163118  0.44020355     0.76800
C322        C  0.04691366  0.56355847  0.55834669     0.76700
O323        O  0.36728315  0.66884832  0.48379449    -0.72400
O324        O  0.32976673  0.71311900  0.48210486    -0.72600
O325        O  0.36599199  0.69201417  0.52646109    -0.72500
O326        O  0.33440385  0.68991491  0.43980199    -0.72500
O327        O  0.21446233  0.68658219  0.44651962    -0.72400
O328        O  0.24768973  0.68709946  0.53432311    -0.72500
O329        O  0.21190650  0.70859976  0.49125478    -0.72400
O330        O  0.24765125  0.66486631  0.48960760    -0.72600
V331        V  0.34708782  0.69091764  0.48324589     1.35200
V332        V  0.23275756  0.68685047  0.49032513     1.35200
C333        C  0.31300157  0.65930276  0.48659468     0.76800
C334        C  0.26361512  0.71833712  0.48589097     0.76900
C335        C  0.31301055  0.68968815  0.54519357     0.76800
C336        C  0.26953288  0.68823970  0.42829633     0.76700
O337        O  0.18832223  0.43539654  0.45954572    -0.72400
O338        O  0.15239496  0.43684252  0.54696874    -0.72600
O339        O  0.14334273  0.45761430  0.50068479    -0.72500
O340        O  0.19509288  0.41457476  0.50584070    -0.72500
O341        O  0.31279179  0.42075428  0.51190421    -0.72400
O342        O  0.25870399  0.46426517  0.51091836    -0.72500
O343        O  0.27012760  0.44219001  0.55486828    -0.72400
O344        O  0.30348705  0.44277012  0.46801218    -0.72600
V345        V  0.17202875  0.43625300  0.50339145     1.35200
V346        V  0.28404356  0.44240721  0.51126816     1.35200
C347        C  0.25289091  0.43852745  0.44892887     0.76800
C348        C  0.20577883  0.43953008  0.56594303     0.76900
C349        C  0.19112547  0.46832647  0.50590168     0.76800
C350        C  0.26252450  0.41024120  0.50915471     0.76700
O351        O  0.27860376  0.33362091  0.49956963    -0.72400
O352        O  0.97405416  0.28901570  0.49960843    -0.72600
O353        O  0.96173398  0.31075758  0.54501801    -0.72500
O354        O  0.28999394  0.31116036  0.45578299    -0.72500
O355        O  0.05668031  0.31605252  0.45213656    -0.72400
O356        O  0.07988974  0.31657301  0.54063861    -0.72500
O357        O  0.09237865  0.29474234  0.49534209    -0.72400
O358        O  0.04675120  0.33820894  0.49721032    -0.72600
V359        V  0.95293654  0.31106641  0.50142792     1.35200
V360        V  0.06670901  0.31632244  0.49647288     1.35200
C361        C  0.33067131  0.34377632  0.49798069     0.76800
C362        C  0.04144524  0.28443206  0.49634867     0.76900
C363        C  0.02425577  0.31346102  0.55787449     0.76800
C364        C  0.99260537  0.31341446  0.44008325     0.76700
O365        O  0.04387711  0.43333565  0.30704094    -0.72400
O366        O  0.06651787  0.43431035  0.21862158    -0.72600
O367        O  0.07235671  0.45571874  0.26454105    -0.72500
O368        O  0.04059297  0.41177992  0.26070846    -0.72500
O369        O  0.26120307  0.41608930  0.25503653    -0.72400
O370        O  0.28907312  0.46056494  0.25586517    -0.72500
O371        O  0.28363391  0.43810631  0.21185843    -0.72400
O372        O  0.26357293  0.43848320  0.29930795    -0.72600
V373        V  0.05353603  0.43384894  0.26270007     1.35200
V374        V  0.27673699  0.43826053  0.25567829     1.35200
C375        C  0.31935114  0.43639356  0.31708682     0.76800
C376        C  0.00944646  0.43627979  0.20124147     0.76900
C377        C  0.01868604  0.46529956  0.26162525     0.76800
C378        C  0.31761958  0.40699504  0.25552292     0.76700
O379        O  0.20466673  0.31143968  0.29769680    -0.72400
O380        O  0.16570081  0.31461833  0.21044680    -0.72600
O381        O  0.15983882  0.29142375  0.25194993    -0.72500
O382        O  0.20698977  0.33463063  0.25611365    -0.72500
O383        O  0.97872794  0.32926642  0.24947561    -0.72400
O384        O  0.27667340  0.28572013  0.24333991    -0.72500
O385        O  0.28299665  0.30903005  0.20176712    -0.72400
O386        O  0.32219404  0.30663922  0.28769480    -0.72600
V387        V  0.18656937  0.31289853  0.25390550     1.35200
V388        V  0.29918404  0.30780505  0.24492241     1.35200
C389        C  0.27126646  0.30907637  0.30733645     0.76800
C390        C  0.21882305  0.31249329  0.19136684     0.76900
C391        C  0.20928545  0.28111604  0.24695901     0.76800
C392        C  0.27302665  0.33963563  0.25244726     0.76700
O393        O  0.15383192  0.06589043  0.02092562    -0.72400
O394        O  0.18817823  0.06778490  0.93313364    -0.72600
O395        O  0.14893296  0.08838702  0.97761495    -0.72500
O396        O  0.19686698  0.04512721  0.97651257    -0.72500
O397        O  0.08057496  0.03916181  0.96654700    -0.72400
O398        O  0.03091071  0.08303211  0.96992812    -0.72500
O399        O  0.06985517  0.06275427  0.92494038    -0.72400
O400        O  0.03777425  0.05972171  0.01123778    -0.72600
V401        V  0.16975166  0.06664758  0.97685759     1.35200
V402        V  0.05711051  0.06121964  0.96833345     1.35200
C403        C  0.08870784  0.06271130  0.03101097     0.76800
C404        C  0.13358936  0.06606477  0.91421064     0.76900
C405        C  0.08227346  0.09317267  0.97454701     0.76800
C406        C  0.14777199  0.03467817  0.97150977     0.76700
O407        O  0.93674451  0.18501036  0.02828087    -0.72400
O408        O  0.91556720  0.18612733  0.93976471    -0.72600
O409        O  0.95085015  0.16400191  0.98115547    -0.72500
O410        O  0.24659984  0.20848234  0.98800609    -0.72500
O411        O  0.01655445  0.21355718  0.98383489    -0.72400
O412        O  0.06871462  0.17020266  0.97614167    -0.72500
O413        O  0.03256142  0.19301528  0.93631563    -0.72400
O414        O  0.05532776  0.19066254  0.02342914    -0.72600
V415        V  0.92765531  0.18567903  0.98388902     1.35200
V416        V  0.04089963  0.19176947  0.98000909     1.35200
C417        C  0.00053523  0.18755361  0.04075131     0.76800
C418        C  0.97120392  0.18972043  0.92293311     0.76900
C419        C  0.01805837  0.15974703  0.97707795     0.76800
C420        C  0.94836557  0.21764588  0.98637773     0.76700
O421        O  0.28106076  0.06331808  0.16975737    -0.72400
O422        O  0.23282262  0.06493597  0.25635970    -0.72600
O423        O  0.27843228  0.08586684  0.21414195    -0.72500
O424        O  0.23240480  0.04235834  0.21188773    -0.72500
O425        O  0.34832473  0.03684478  0.22298369    -0.72400
O426        O  0.04750235  0.08047934  0.22476094    -0.72500
O427        O  0.34946142  0.05948489  0.26716190    -0.72400
O428        O  0.04992561  0.05787999  0.18119620    -0.72600
V429        V  0.25835371  0.06399665  0.21320804     1.35200
V430        V  0.02435300  0.05857515  0.22372184     1.35200
C431        C  0.00025592  0.06040247  0.16081547     0.76800
C432        C  0.28434277  0.06286082  0.27644322     0.76900
C433        C  0.99577053  0.09042751  0.21975321     0.76800
C434        C  0.28218622  0.03208064  0.21667876     0.76700
O435        O  0.00424119  0.16752038  0.23410349    -0.72400
O436        O  0.05541071  0.21113960  0.23557344    -0.72600
O437        O  0.01462339  0.19013451  0.19136931    -0.72500
O438        O  0.04305493  0.18872324  0.27853357    -0.72500
O439        O  0.16203375  0.18430918  0.27235359    -0.72400
O440        O  0.12999464  0.18278780  0.18436748    -0.72500
O441        O  0.17151939  0.20510162  0.22609724    -0.72400
O442        O  0.12291044  0.16177872  0.23062191    -0.72600
V443        V  0.03156812  0.18926305  0.23478581     1.35200
V444        V  0.14439572  0.18358104  0.22845601     1.35200
C445        C  0.05551011  0.15720089  0.23236464     0.76800
C446        C  0.12244413  0.21556208  0.23081272     0.76900
C447        C  0.06652421  0.18637557  0.17284666     0.76800
C448        C  0.10736021  0.18672957  0.29053753     0.76700
C449        C  0.01083055  0.10760183  0.22157744    -0.06700
C450        C  0.07054488  0.11283022  0.24052432    -0.17900
C451        C  0.08373651  0.12885486  0.24565929     0.10500
C452        C  0.03772683  0.14018118  0.23099625    -0.06700
C453        C  0.97792984  0.13503313  0.21202624    -0.17900
C454        C  0.96470321  0.11895808  0.20674123     0.10500
S455        S  0.15710406  0.13408465  0.27283387    -0.32900
S456        S  0.23612168  0.11472361  0.18239983    -0.32900
H457        H  0.27637446  0.10305802  0.16605701     0.28500
H458        H  0.11423637  0.14613236  0.28671435     0.28500
H459        H  0.10589646  0.10436625  0.25237975     0.19100
H460        H  0.94325254  0.14360024  0.20010398     0.19100
C461        C  0.01317047  0.18686735  0.07463071    -0.06700
C462        C  0.07305860  0.17760537  0.08550279    -0.17900
C463        C  0.09247335  0.17721782  0.11711647     0.10500
C464        C  0.05155829  0.18643610  0.13873005    -0.06700
C465        C  0.99128333  0.19563601  0.12763950    -0.17900
C466        C  0.97171773  0.19598213  0.09604632     0.10500
S467        S  0.16682069  0.16402276  0.12835675    -0.32900
S468        S  0.24336454  0.20864909  0.08530390    -0.32900
H469        H  0.27698337  0.21413753  0.05795851     0.28500
H470        H  0.21312187  0.17623807  0.13959173     0.28500
H471        H  0.10508060  0.17056774  0.06913684     0.19100
H472        H  0.30700169  0.20251759  0.14424916     0.19100
C473        C  0.02224249  0.06087788  0.12764335    -0.06700
C474        C  0.09060868  0.06814893  0.11979782    -0.17900
C475        C  0.11460723  0.06908145  0.08870485     0.10500
C476        C  0.06964251  0.06231764  0.06478599    -0.06700
C477        C  0.00114610  0.05520730  0.07298824    -0.17900
C478        C  0.97775566  0.05416201  0.10388033     0.10500
S479        S  0.19976626  0.07976465  0.08017562    -0.32900
S480        S  0.89374962  0.04324020  0.11258847    -0.32900
H481        H  0.86680965  0.04161162  0.08191954     0.28500
H482        H  0.22159503  0.08294927  0.11112877     0.28500
H483        H  0.12456114  0.07340130  0.13814517     0.19100
H484        H  0.96527325  0.05036722  0.05506493     0.19100
C485        C  0.06595395  0.11025187  0.97580504    -0.06700
C486        C  0.00623731  0.11615107  0.95785678    -0.17900
C487        C  0.99163085  0.13231792  0.95661851     0.10500
C488        C  0.03654095  0.14290325  0.97425747    -0.06700
C489        C  0.09697331  0.13709444  0.99171125    -0.17900
C490        C  0.11148910  0.12096003  0.99309853     0.10500
S491        S  0.91715289  0.13875040  0.93101696    -0.32900
S492        S  0.18582967  0.11486546  0.01905588    -0.32900
H493        H  0.14456530  0.10220323  0.03107073     0.28500
H494        H  0.95285983  0.15280968  0.92242294     0.28500
H495        H  0.97180564  0.10816254  0.94404878     0.19100
H496        H  0.13107650  0.14513295  0.00556640     0.19100
C497        C  0.18747535  0.26421931  0.24409152    -0.06700
C498        C  0.23120028  0.25424057  0.22526257    -0.17900
C499        C  0.20937053  0.23866437  0.21889572     0.10500
C500        C  0.14361720  0.23247709  0.23267617    -0.06700
C501        C  0.09958274  0.24246583  0.25117209    -0.17900
C502        C  0.12054291  0.25805702  0.25722766     0.10500
S503        S  0.26533926  0.22775009  0.19137548    -0.32900
S504        S  0.05949568  0.26890591  0.28295390    -0.32900
H505        H  0.11672818  0.27757279  0.29736321     0.28500
H506        H  0.20346988  0.22036135  0.17674782     0.28500
H507        H  0.28128955  0.25878996  0.21428138     0.19100
H508        H  0.04928447  0.23793600  0.26203946     0.19100
C509        C  0.30805248  0.38974963  0.25415061    -0.06700
C510        C  0.25316661  0.38299557  0.27300253    -0.17900
C511        C  0.24391479  0.36669618  0.27427427     0.10500
C512        C  0.28830110  0.35673622  0.25514566    -0.06700
C513        C  0.00249327  0.36245086  0.24152814    -0.17900
C514        C  0.35431608  0.37984624  0.23579570     0.10500
S515        S  0.17708851  0.35942341  0.30209780    -0.32900
S516        S  0.09212051  0.38561333  0.21773312    -0.32900
H517        H  0.05355262  0.39868820  0.20566609     0.28500
H518        H  0.22195983  0.34661788  0.31133406     0.28500
H519        H  0.21878327  0.39047378  0.28771797     0.19100
H520        H  0.04024075  0.35475434  0.22882427     0.19100
C521        C  0.97911298  0.31227035  0.40596690    -0.06700
C522        C  0.91010562  0.30570644  0.39609456    -0.17900
C523        C  0.25711346  0.30016919  0.36260341     0.10500
C524        C  0.29129670  0.30985824  0.34055218    -0.06700
C525        C  0.34736365  0.32053923  0.35026009    -0.17900
C526        C  0.36824914  0.32199020  0.38180028     0.10500
S527        S  0.19006955  0.28516966  0.35230383    -0.32900
S528        S  0.43915060  0.33614519  0.39320394    -0.32900
H529        H  0.46215488  0.34002669  0.36297783     0.28500
H530        H  0.22981833  0.28027248  0.32571320     0.28500
H531        H  0.86923775  0.30220524  0.41309853     0.19100
H532        H  0.37404200  0.32788689  0.33307123     0.19100
C533        C  0.27045127  0.43722444  0.41520258    -0.06700
C534        C  0.32993433  0.44631026  0.40350393    -0.17900
C535        C  0.34927852  0.44578408  0.37187723     0.10500
C536        C  0.30763776  0.43617560  0.35115570    -0.06700
C537        C  0.24904531  0.42690937  0.36280227    -0.17900
C538        C  0.23124782  0.42701396  0.39451832     0.10500
S539        S  0.42418750  0.45811249  0.35804273    -0.32900
S540        S  0.15960958  0.41349575  0.40698316    -0.32900
H541        H  0.20029694  0.40846305  0.43329120     0.28500
H542        H  0.45089147  0.46311998  0.38739738     0.28500
H543        H  0.36074260  0.45406111  0.41914192     0.19100
H544        H  0.21724828  0.41937466  0.34703259     0.19100
C545        C  0.28167649  0.39327817  0.50827395    -0.06700
C546        C  0.34780686  0.38851901  0.49332152    -0.17900
C547        C  0.36390516  0.37255817  0.48837480     0.10500
C548        C  0.31395522  0.36088620  0.49951495    -0.06700
C549        C  0.24790083  0.36571417  0.51447072    -0.17900
C550        C  0.23189717  0.38163576  0.51928773     0.10500
S551        S  0.44627378  0.36806468  0.46579972    -0.32900
S552        S  0.15021070  0.38629891  0.54194645    -0.32900
H553        H  0.18989792  0.39743871  0.56005034     0.28500
H554        H  0.02832443  0.35438750  0.44443058     0.28500
H555        H  0.38567731  0.39730616  0.48414732     0.19100
H556        H  0.20954854  0.35701152  0.52360706     0.19100
C557        C  0.16661738  0.48505648  0.50595937    -0.06700
C558        C  0.10211451  0.48897855  0.48858364    -0.17900
C559        C  0.07380648  0.50432502  0.48806643     0.10500
C560        C  0.11180188  0.51643682  0.50457590    -0.06700
C561        C  0.17524031  0.51245546  0.52266697    -0.17900
C562        C  0.20266156  0.49695064  0.52382103     0.10500
S563        S  0.99080763  0.50757547  0.46485605    -0.32900
S564        S  0.28161125  0.49256619  0.54905554    -0.32900
H565        H  0.29431752  0.50798836  0.56004850     0.28500
H566        H  0.95009260  0.51408788  0.48966674     0.28500
H567        H  0.07300334  0.47995476  0.47518372     0.19100
H568        H  0.20375965  0.52160622  0.53588884     0.19100
C569        C  0.32392867  0.64202464  0.48744787    -0.06700
C570        C  0.27329291  0.63314420  0.50516405    -0.17900
C571        C  0.28155974  0.61689088  0.50848428     0.10500
C572        C  0.34019372  0.60902195  0.49288905    -0.06700
C573        C  0.06422391  0.61807787  0.47589965    -0.17900
C574        C  0.05307681  0.63426364  0.47222378     0.10500
S575        S  0.21925778  0.60718323  0.53493650    -0.32900
S576        S  0.11474153  0.64435819  0.44593330    -0.32900
H577        H  0.05740514  0.65359586  0.43269553     0.28500
H578        H  0.27443406  0.59715096  0.54744994     0.28500
H579        H  0.22828177  0.63899993  0.51759560     0.19100
H580        H  0.11048343  0.61245333  0.46383637     0.19100
C581        C  0.03350073  0.68834562  0.64324397    -0.06700
C582        C  0.30111215  0.69689944  0.63221547    -0.17900
C583        C  0.28300771  0.69755362  0.60054999     0.10500
C584        C  0.32884554  0.68965751  0.57885923    -0.06700
C585        C  0.39243081  0.68144623  0.58941837    -0.17900
C586        C  0.41017083  0.68061583  0.62112112     0.10500
S587        S  0.20320321  0.70934604  0.58925825    -0.32900
S588        S  0.15084558  0.66648671  0.63224178    -0.32900
H589        H  0.10980895  0.65970450  0.65659015     0.28500
H590        H  0.23571135  0.71511734  0.56188885     0.28500
H591        H  0.26564473  0.70321985  0.64848067     0.19100
H592        H  0.42755192  0.67523975  0.57283521     0.19100
C593        C  0.32328772  0.56255473  0.65531566    -0.06700
C594        C  0.06324753  0.57137137  0.64609289    -0.17900
C595        C  0.07852632  0.57243025  0.61414569     0.10500
C596        C  0.03654847  0.56322158  0.59259470    -0.06700
C597        C  0.29560524  0.55442648  0.60219006    -0.17900
C598        C  0.27967575  0.55380943  0.63385124     0.10500
S599        S  0.14847947  0.58641931  0.60244968    -0.32900
S600        S  0.20652763  0.54066573  0.64552601    -0.32900
H601        H  0.25068020  0.53432671  0.66967026     0.28500
H602        H  0.10421506  0.59240461  0.57800060     0.28500
H603        H  0.09461334  0.57868919  0.66240566     0.19100
H604        H  0.26132099  0.54744342  0.58631647     0.19100
C605        C  0.32845464  0.61086953  0.74557762    -0.06700
C606        C  0.28027348  0.62051546  0.72796479    -0.17900
C607        C  0.29401727  0.63663946  0.72463309     0.10500
C608        C  0.35564611  0.64368589  0.74023215    -0.06700
C609        C  0.40336778  0.63419399  0.75813947    -0.17900
C610        C  0.39083245  0.61799986  0.76092934     0.10500
S611        S  0.23409979  0.64726307  0.69830248    -0.32900
S612        S  0.45484614  0.60746048  0.78561849    -0.32900
H613        H  0.47610223  0.59736452  0.76140545     0.28500
H614        H  0.29159925  0.65672954  0.68617202     0.28500
H615        H  0.23267988  0.61537211  0.71569477     0.19100
H616        H  0.12662020  0.63970055  0.77016447     0.19100
C617        C  0.21608323  0.98577613  0.96382048    -0.06700
C618        C  0.25688093  0.99626467  0.98276816    -0.17900
C619        C  0.23413078  0.01194015  0.98674622     0.10500
C620        C  0.16981551  0.01771962  0.97072276    -0.06700
C621        C  0.12903711  0.00722428  0.95169328    -0.17900
C622        C  0.15193194  0.99153021  0.94768494     0.10500
S623        S  0.28758966  0.02355074  0.01420698    -0.32900
S624        S  0.09940837  0.97985046  0.91998690    -0.32900
H625        H  0.16297777  0.97212328  0.90788509     0.28500
H626        H  0.22400227  0.03073051  0.02755108     0.28500
H627        H  0.30535458  0.99206225  0.99567760     0.19100
H628        H  0.08051877  0.01141971  0.93881247     0.19100
C629        C  0.31788721  0.89307658  0.96754610    -0.06700
C630        C  0.26544889  0.88395521  0.98378477    -0.17900
C631        C  0.27333135  0.86763646  0.98661840     0.10500
C632        C  0.33491292  0.85990741  0.97239941    -0.06700
C633        C  0.38807685  0.86908670  0.95651499    -0.17900
C634        C  0.37947042  0.88542229  0.95342586     0.10500
S635        S  0.20344073  0.85773181  0.00950731    -0.32900
S636        S  0.44512589  0.89549209  0.92893275    -0.32900
H637        H  0.39174667  0.90571667  0.91573951     0.28500
H638        H  0.25198228  0.84645250  0.02214433     0.28500
H639        H  0.21794329  0.88965572  0.99483918     0.19100
H640        H  0.43517483  0.86340368  0.94515344     0.19100
C641        C  0.17835496  0.76758056  0.72744154    -0.06700
C642        C  0.12026348  0.76318649  0.74769561    -0.17900
C643        C  0.09636748  0.74754109  0.75002168     0.10500
C644        C  0.12994911  0.73581831  0.73119026    -0.06700
C645        C  0.18824270  0.74016554  0.71104076    -0.17900
C646        C  0.21282294  0.75578237  0.70900812     0.10500
S647        S  0.02489225  0.74333100  0.77830647    -0.32900
S648        S  0.28434692  0.75997193  0.68082541    -0.32900
H649        H  0.33606380  0.76533335  0.70337070     0.28500
H650        H  0.05991348  0.72960509  0.78933942     0.28500
H651        H  0.09359483  0.77201463  0.76225349     0.19100
H652        H  0.21456140  0.73131829  0.69641392     0.19100
C653        C  0.28332721  0.81431746  0.81577489    -0.06700
C654        C  0.35161704  0.80730897  0.82504958    -0.17900
C655        C  0.37400687  0.80691531  0.85643700     0.10500
C656        C  0.32604118  0.81320770  0.87937857    -0.06700
C657        C  0.25862725  0.82043669  0.87014646    -0.17900
C658        C  0.23808055  0.82154219  0.83880275     0.10500
S659        S  0.46213762  0.79779641  0.86680791    -0.32900
S660        S  0.15625527  0.83320718  0.83000596    -0.32900
H661        H  0.19272324  0.84170706  0.80654592     0.28500
H662        H  0.48509749  0.79386959  0.83645843     0.28500
H663        H  0.38749686  0.80198695  0.80764905     0.19100
H664        H  0.22249275  0.82573914  0.88754883     0.19100
C665        C  0.33206613  0.94020361  0.80623879    -0.06700
C666        C  0.27167328  0.93149462  0.81800629    -0.17900
C667        C  0.25715935  0.93087961  0.84994431     0.10500
C668        C  0.30277003  0.93953337  0.87112869    -0.06700
C669        C  0.36315707  0.94833347  0.85917047    -0.17900
C670        C  0.37768430  0.94891022  0.82712607     0.10500
S671        S  0.18208720  0.91814689  0.86191873    -0.32900
S672        S  0.12915160  0.96093106  0.81666519    -0.32900
H673        H  0.09470279  0.96633042  0.78920118     0.28500
H674        H  0.22554846  0.91098872  0.88534385     0.28500
H675        H  0.23617493  0.92478933  0.80212280     0.19100
H676        H  0.39879313  0.95507451  0.87483743     0.19100
C677        C  0.27500276  0.86012534  0.72262072    -0.06700
C678        C  0.22509511  0.86962783  0.70586829    -0.17900
C679        C  0.23816362  0.88572315  0.70250521     0.10500
C680        C  0.30175705  0.89282753  0.71669365    -0.06700
C681        C  0.35094805  0.88326748  0.73405540    -0.17900
C682        C  0.33758410  0.86713847  0.73758250     0.10500
S683        S  0.17575196  0.89608440  0.67723273    -0.32900
S684        S  0.39915718  0.85644829  0.76324119    -0.32900
H685        H  0.34320107  0.84642154  0.77483319     0.28500
H686        H  0.23676691  0.90272461  0.66139507     0.28500
H687        H  0.17688588  0.86434554  0.69422790     0.19100
H688        H  0.39932431  0.88845470  0.74570639     0.19100
C689        C  0.25376872  0.68844410  0.32849393    -0.06700
C690        C  0.19992928  0.69653293  0.34647468    -0.17900
C691        C  0.20320366  0.69667478  0.37898254     0.10500
C692        C  0.26048624  0.68822851  0.39426769    -0.06700
C693        C  0.31456632  0.68025930  0.37657478    -0.17900
C694        C  0.31246355  0.68035256  0.34411977     0.10500
S695        S  0.13530058  0.70853552  0.39942801    -0.32900
S696        S  0.38608678  0.66969053  0.32466719    -0.32900
H697        H  0.40824685  0.68293628  0.30789980     0.28500
H698        H  0.18665476  0.71441961  0.42170517     0.28500
H699        H  0.15523960  0.70305443  0.33517340     0.19100
H700        H  0.35951780  0.67394875  0.38821496     0.19100
C701        C  0.07882533  0.56416589  0.34029494    -0.06700
C702        C  0.02467964  0.55469765  0.35433900    -0.17900
C703        C  0.02209447  0.55320652  0.38668063     0.10500
C704        C  0.07380148  0.56168175  0.40576442    -0.06700
C705        C  0.12716007  0.57138314  0.39155624    -0.17900
C706        C  0.12970508  0.57283531  0.35918152     0.10500
S707        S  0.95477345  0.53946089  0.40176333    -0.32900
S708        S  0.19701628  0.58645342  0.34342283    -0.32900
H709        H  0.15186416  0.59097203  0.31802405     0.28500
H710        H  0.00586589  0.53331406  0.42354203     0.28500
H711        H  0.98635424  0.54782152  0.33994489     0.19100
H712        H  0.16599661  0.57821446  0.40578063     0.19100
C713        C  0.03335139  0.48247957  0.26006074    -0.06700
C714        C  0.98221341  0.49188156  0.24358331    -0.17900
C715        C  0.99584805  0.50793547  0.23873935     0.10500
C716        C  0.06248097  0.51491670  0.25095884    -0.06700
C717        C  0.11385374  0.50545639  0.26712435    -0.17900
C718        C  0.09970229  0.48953337  0.27221146     0.10500
S719        S  0.92929441  0.51890423  0.21541195    -0.32900
S720        S  0.16651143  0.47930095  0.29624195    -0.32900
H721        H  0.10986931  0.47158757  0.31263832     0.28500
H722        H  0.87592223  0.50684961  0.21104923     0.28500
H723        H  0.93219222  0.48650266  0.23368378     0.19100
H724        H  0.16454667  0.51062449  0.27696193     0.19100
C725        C  0.13911851  0.60821971  0.24481397    -0.06700
C726        C  0.20032957  0.61451677  0.26147492    -0.17900
C727        C  0.21342382  0.63070801  0.26249908     0.10500
C728        C  0.16560986  0.64096679  0.24589473    -0.06700
C729        C  0.10319743  0.63479727  0.22992581    -0.17900
C730        C  0.09001481  0.61856494  0.22877043     0.10500
S731        S  0.29007419  0.63761271  0.28657951    -0.32900
S732        S  0.01278164  0.61187086  0.20463793    -0.32900
H733        H  0.05299053  0.59925599  0.19134349     0.28500
H734        H  0.25343339  0.65151253  0.29597128     0.28500
H735        H  0.23743409  0.60680768  0.27440292     0.19100
H736        H  0.06659960  0.64259138  0.21696473     0.19100
C737        C  0.10479795  0.69077260  0.82794815    -0.06700
C738        C  0.04885613  0.68300644  0.84472185    -0.17900
C739        C  0.05226374  0.68199620  0.87700713     0.10500
C740        C  0.11234551  0.68913751  0.89344894    -0.06700
C741        C  0.16864840  0.69693535  0.87660965    -0.17900
C742        C  0.16490433  0.69804339  0.84413546     0.10500
S743        S  0.98032409  0.67065553  0.89538445    -0.32900
S744        S  0.23525320  0.70975625  0.82516745    -0.32900
H745        H  0.18728176  0.71559542  0.80182897     0.28500
H746        H  0.03107362  0.66291296  0.91532018     0.28500
H747        H  0.00265717  0.67730718  0.83244474     0.19100
H748        H  0.21469541  0.70266740  0.88888820     0.19100
C749        C  0.08020644  0.76912952  0.97468616    -0.06700
C750        C  0.03618089  0.76049739  0.99519756    -0.17900
C751        C  0.05029302  0.74469222  0.00069166     0.10500
C752        C  0.10759575  0.73669482  0.98437125    -0.06700
C753        C  0.15268812  0.74531040  0.96392016    -0.17900
C754        C  0.14004310  0.76146741  0.95899883     0.10500
S755        S  0.99657122  0.73594927  0.03087089    -0.32900
S756        S  0.44740276  0.76503195  0.91185387    -0.32900
H757        H  0.38530253  0.77527198  0.91264530     0.28500
H758        H  0.05802159  0.72739265  0.04275162     0.28500
H759        H  0.99187388  0.76628151  0.00820835     0.19100
H760        H  0.19638799  0.73926014  0.95111010     0.19100
C761        C  0.15479695  0.68923171  0.07983041    -0.06700
C762        C  0.10628887  0.67993037  0.09763091    -0.17900
C763        C  0.11990844  0.67755960  0.12939439     0.10500
C764        C  0.18261665  0.68484984  0.14385270    -0.06700
C765        C  0.23101794  0.69404630  0.12613938    -0.17900
C766        C  0.21707285  0.69656741  0.09465611     0.10500
S767        S  0.05833331  0.66434529  0.14965383    -0.32900
S768        S  0.27882615  0.71001626  0.07538063    -0.32900
H769        H  0.22117230  0.71735542  0.05821286     0.28500
H770        H  0.11335541  0.65883726  0.17054141     0.28500
H771        H  0.05915240  0.67398782  0.08653778     0.19100
H772        H  0.27830929  0.69994083  0.13727058     0.19100
C773        C  0.24271100  0.56604239  0.83947689    -0.06700
C774        C  0.18353752  0.55707128  0.85134145    -0.17900
C775        C  0.17417071  0.55527149  0.88356544     0.10500
C776        C  0.22469264  0.56289694  0.90453216    -0.06700
C777        C  0.28355774  0.57192839  0.89240928    -0.17900
C778        C  0.29297872  0.57358214  0.86036234     0.10500
S779        S  0.10096093  0.54227686  0.89704790    -0.32900
S780        S  0.36922767  0.58582908  0.84761099    -0.32900
H781        H  0.32984188  0.59186877  0.82185032     0.28500
H782        H  0.06301977  0.54049339  0.86838423     0.28500
H783        H  0.14640559  0.55094642  0.83522237     0.19100
H784        H  0.32208880  0.57801519  0.90803725     0.19100
C785        C  0.17146997  0.56139860  0.09097453    -0.06700
C786        C  0.10204570  0.55558718  0.10154504    -0.17900
C787        C  0.08554473  0.55458593  0.13320142     0.10500
C788        C  0.13859578  0.55995249  0.15537245    -0.06700
C789        C  0.20832437  0.56562126  0.14508147    -0.17900
C790        C  0.22557308  0.56630500  0.11339865     0.10500
S791        S  0.99756373  0.54559219  0.14365155    -0.32900
S792        S  0.31647911  0.57403823  0.10353438    -0.32900
H793        H  0.33761511  0.56024102  0.08754181     0.28500
H794        H  0.02786523  0.53726177  0.16893662     0.28500
H795        H  0.05995630  0.55158631  0.08502635     0.19100
H796        H  0.24974013  0.56973423  0.16189995     0.19100
C797        C  0.15819337  0.60877215  0.99432439    -0.06700
C798        C  0.21591623  0.61756642  0.98079989    -0.17900
C799        C  0.21080080  0.63381348  0.97759218     0.10500
C800        C  0.14668775  0.64196288  0.98837428    -0.06700
C801        C  0.08811185  0.63316211  0.00170377    -0.17900
C802        C  0.09383963  0.61676882  0.00535121     0.10500
S803        S  0.28643861  0.64314975  0.95763312    -0.32900
S804        S  0.02058130  0.60709968  0.02657735    -0.32900
H805        H  0.06877305  0.59664121  0.04220711     0.28500
H806        H  0.23628022  0.65176884  0.93900475     0.28500
H807        H  0.26554729  0.61166443  0.97195896     0.19100
H808        H  0.03879985  0.63915118  0.01056623     0.19100
C809        C  0.29764573  0.18889740  0.82406849    -0.06700
C810        C  0.35613478  0.19773341  0.83746903    -0.17900
C811        C  0.36337170  0.19928270  0.86990227     0.10500
C812        C  0.96573412  0.18941073  0.88844100    -0.06700
C813        C  0.90849422  0.18032780  0.87450737    -0.17900
C814        C  0.90218591  0.17887810  0.84219984     0.10500
S815        S  0.43678744  0.21192683  0.88541944    -0.32900
S816        S  0.82933330  0.16612140  0.82694053    -0.32900
H817        H  0.87045041  0.16091631  0.80096416     0.28500
H818        H  0.47592426  0.21404368  0.85742400     0.28500
H819        H  0.39439733  0.20394051  0.82239671     0.19100
H820        H  0.86896334  0.17402340  0.88888281     0.19100
C821        C  0.14343344  0.06727509  0.88022956    -0.06700
C822        C  0.20542299  0.05984240  0.86691328    -0.17900
C823        C  0.21176089  0.05824839  0.83469036     0.10500
C824        C  0.15621125  0.06472925  0.81461586    -0.06700
C825        C  0.09501091  0.07263810  0.82813365    -0.17900
C826        C  0.08841400  0.07409853  0.86054902     0.10500
S827        S  0.28873854  0.04646245  0.82133141    -0.32900
S828        S  0.01038872  0.08541189  0.87530545    -0.32900
H829        H  0.04926842  0.09139260  0.90146674     0.28500
H830        H  0.24093528  0.03708942  0.80262805     0.28500
H831        H  0.24725297  0.05438874  0.88180261     0.19100
H832        H  0.05258969  0.07797995  0.81340955     0.19100
C833        C  0.12931896  0.01745709  0.71918066    -0.06700
C834        C  0.16836198  0.00702424  0.69967202    -0.17900
C835        C  0.14429282  0.99137584  0.69573170     0.10500
C836        C  0.08102924  0.98584864  0.71234816    -0.06700
C837        C  0.04226716  0.99630161  0.73172486    -0.17900
C838        C  0.06634553  0.01183847  0.73561082     0.10500
S839        S  0.19357024  0.97938568  0.66767258    -0.32900
S840        S  0.01661850  0.02370251  0.76331338    -0.32900
H841        H  0.08062935  0.03178486  0.77442225     0.28500
H842        H  0.13002876  0.97074185  0.65788483     0.28500
H843        H  0.21574450  0.01125492  0.68639045     0.19100
H844        H  0.99471069  0.99215921  0.74502976     0.19100
C845        C  0.21378685  0.11069279  0.72530995    -0.06700
C846        C  0.16121179  0.12051669  0.71034417    -0.17900
C847        C  0.16770062  0.13693081  0.71143490     0.10500
C848        C  0.22718436  0.14391781  0.72849080    -0.06700
C849        C  0.27998210  0.13416889  0.74334706    -0.17900
C850        C  0.27336149  0.11774321  0.74241602     0.10500
S851        S  0.10115587  0.14819914  0.68895890    -0.32900
S852        S  0.34007255  0.10663595  0.76509057    -0.32900
H853        H  0.28553308  0.09664815  0.77793358     0.28500
H854        H  0.15418814  0.15915402  0.67830706     0.28500
H855        H  0.11535116  0.11536704  0.69698832     0.19100
H856        H  0.32594073  0.13942316  0.75650042     0.19100
C857        C  0.27097138  0.06437342  0.31012425    -0.06700
C858        C  0.21087348  0.05626481  0.32343828    -0.17900
C859        C  0.20445048  0.05510256  0.35583512     0.10500
C860        C  0.25824330  0.06264593  0.37553483    -0.06700
C861        C  0.31662579  0.07122838  0.36192796    -0.17900
C862        C  0.32309969  0.07229596  0.32968664     0.10500
S863        S  0.12947648  0.04291885  0.37014650    -0.32900
S864        S  0.39798046  0.08438479  0.31490262    -0.32900
H865        H  0.35633272  0.08990379  0.28930509     0.28500
H866        H  0.17536283  0.03508068  0.39186703     0.28500
H867        H  0.17113778  0.05004868  0.30853621     0.19100
H868        H  0.35718786  0.07739686  0.37651587     0.19100
C869        C  0.22711689  0.06447763  0.56246699    -0.06700
C870        C  0.27746502  0.05602825  0.58112490    -0.17900
C871        C  0.26752686  0.05505993  0.61347610     0.10500
C872        C  0.20626170  0.06303499  0.62768314    -0.06700
C873        C  0.15618855  0.07150273  0.60881855    -0.17900
C874        C  0.16646368  0.07246456  0.57666016     0.10500
S875        S  0.33035987  0.04260702  0.63558404    -0.32900
S876        S  0.10272100  0.08482762  0.55518977    -0.32900
H877        H  0.15876672  0.09057036  0.53538486     0.28500
H878        H  0.38200774  0.03951506  0.61164216     0.28500
H879        H  0.32308603  0.04970362  0.57009845     0.19100
H880        H  0.10973654  0.07782657  0.61929123     0.19100
C881        C  0.12467069  0.19030128  0.39076829    -0.06700
C882        C  0.18276546  0.18311612  0.37382853    -0.17900
C883        C  0.17949821  0.18169118  0.34138120     0.10500
C884        C  0.11653362  0.18772951  0.32499172    -0.06700
C885        C  0.05975629  0.19543886  0.34211531    -0.17900
C886        C  0.06354909  0.19693692  0.37454713     0.10500
S887        S  0.25700551  0.17172416  0.32300783    -0.32900
S888        S  0.99128547  0.20829139  0.39356251    -0.32900
H889        H  0.03877600  0.21482613  0.41660213     0.28500
H890        H  0.21147329  0.16235764  0.30371541     0.28500
H891        H  0.23050338  0.17814014  0.38610443     0.19100
H892        H  0.01231453  0.20067513  0.33011138     0.19100
C893        C  0.10007195  0.23510729  0.49365037    -0.06700
C894        C  0.14410493  0.24608804  0.47792263    -0.17900
C895        C  0.12475414  0.26203536  0.47749501     0.10500
C896        C  0.06098787  0.26747238  0.49405055    -0.06700
C897        C  0.01714713  0.25650405  0.51001619    -0.17900
C898        C  0.03644583  0.24051852  0.51043287     0.10500
S899        S  0.18123951  0.27454298  0.45352884    -0.32900
S900        S  0.97978283  0.22789896  0.53432022    -0.32900
H901        H  0.04089299  0.21894633  0.54518701     0.28500
H902        H  0.11970545  0.28288487  0.44114161     0.28500
H903        H  0.19223182  0.24212717  0.46463685     0.19100
H904        H  0.96882900  0.26047811  0.52316422     0.19100
C905        C  0.17936495  0.18652627  0.57627557    -0.06700
C906        C  0.13095185  0.19485757  0.59592738    -0.17900
C907        C  0.14904222  0.19734326  0.62732731     0.10500
C908        C  0.21620303  0.19083927  0.63996361    -0.06700
C909        C  0.26335692  0.18210125  0.62028552    -0.17900
C910        C  0.24525792  0.17972626  0.58889447     0.10500
S911        S  0.08623446  0.20985424  0.64904237    -0.32900
S912        S  0.30676772  0.16723633  0.56653801    -0.32900
H913        H  0.25008633  0.16113065  0.54685508     0.28500
H914        H  0.14491637  0.21835318  0.66335941     0.28500
H915        H  0.08070880  0.20024465  0.58638550     0.19100
H916        H  0.31375288  0.17665312  0.62956963     0.19100
C917        C  0.18390858  0.14224390  0.47650576    -0.06700
C918        C  0.24318241  0.13657340  0.45812876    -0.17900
C919        C  0.25375664  0.12039302  0.45330488     0.10500
C920        C  0.20483052  0.10952639  0.46757822    -0.06700
C921        C  0.14444077  0.11519098  0.48509290    -0.17900
C922        C  0.13456899  0.13127819  0.49039804     0.10500
S923        S  0.32805441  0.11441835  0.42738139    -0.32900
S924        S  0.06096877  0.13679835  0.51697467    -0.32900
H925        H  0.10460951  0.14825924  0.53260523     0.28500
H926        H  0.28966264  0.10123919  0.41514817     0.28500
H927        H  0.28043560  0.14479227  0.44679891     0.19100
H928        H  0.10647806  0.10699283  0.49603706     0.19100
C929        C  0.19244409  0.31187552  0.09229601    -0.06700
C930        C  0.25324665  0.31989797  0.10611315    -0.17900
C931        C  0.26142884  0.32080131  0.13847767     0.10500
C932        C  0.20742375  0.31356777  0.15757716    -0.06700
C933        C  0.14593387  0.30580659  0.14399204    -0.17900
C934        C  0.13857315  0.30456772  0.11167766     0.10500
S935        S  0.33892861  0.33190591  0.15514188    -0.32900
S936        S  0.06179912  0.29266035  0.09710158    -0.32900
H937        H  0.10584207  0.28468129  0.07490193     0.28500
H938        H  0.37639843  0.33492800  0.12709667     0.28500
H939        H  0.29386016  0.32572200  0.09150618     0.19100
H940        H  0.10535969  0.29997066  0.15866587     0.19100
C941        C  0.27273010  0.23580507  0.99029513    -0.06700
C942        C  0.20784528  0.24048364  0.97387053    -0.17900
C943        C  0.18021312  0.25590153  0.97593816     0.10500
C944        C  0.21813331  0.26706416  0.99484644    -0.06700
C945        C  0.28244702  0.26232646  0.01155979    -0.17900
C946        C  0.31002139  0.24692445  0.00951284     0.10500
S947        S  0.10039518  0.26089710  0.95199477    -0.32900
S948        S  0.02948319  0.23848625  0.03848195    -0.32900
H949        H  0.08059276  0.23444600  0.01496727     0.28500
H950        H  0.05785748  0.26667329  0.97699047     0.28500
H951        H  0.17857819  0.23205647  0.95905853     0.19100
H952        H  0.31191612  0.27076589  0.02628121     0.19100
C953        C  0.01591967  0.43821689  0.10108772    -0.06700
C954        C  0.07202241  0.44577556  0.11915786    -0.17900
C955        C  0.07167969  0.44536536  0.15170120     0.10500
C956        C  0.01493941  0.43689531  0.16701952    -0.06700
C957        C  0.95891626  0.42933580  0.14923013    -0.17900
C958        C  0.95856649  0.42990429  0.11670842     0.10500
S959        S  0.14279662  0.45657647  0.17221533    -0.32900
S960        S  0.22874731  0.41880330  0.09456149    -0.32900
H961        H  0.20051761  0.43180303  0.07856554     0.28500
H962        H  0.09419632  0.46227098  0.19542332     0.28500
H963        H  0.11627659  0.45232985  0.10790356     0.19100
H964        H  0.25769776  0.42264685  0.15852233     0.19100
C965        C  0.25696009  0.51628219  0.00247988    -0.06700
C966        C  0.21831645  0.50484062  0.98494867    -0.17900
C967        C  0.24433564  0.48925637  0.98327601     0.10500
C968        C  0.97690542  0.48342664  0.00172729    -0.06700
C969        C  0.34715197  0.49614732  0.01815977    -0.17900
C970        C  0.32107195  0.51164087  0.01991188     0.10500
S971        S  0.87862543  0.47571796  0.95190864    -0.32900
S972        S  0.37028051  0.52465994  0.04627539    -0.32900
H973        H  0.30494874  0.53218543  0.05719889     0.28500
H974        H  0.94652774  0.46798538  0.94493734     0.28500
H975        H  0.16963860  0.50821158  0.97122591     0.19100
H976        H  0.39606997  0.49287975  0.03184445     0.19100
C977        C  0.10304135  0.39257361  0.01310272    -0.06700
C978        C  0.16416876  0.38732972  0.99545875    -0.17900
C979        C  0.17786552  0.37124371  0.99104640     0.10500
C980        C  0.13063957  0.35999280  0.00536531    -0.06700
C981        C  0.07114665  0.36532828  0.02395340    -0.17900
C982        C  0.05750169  0.38140693  0.02825912     0.10500
S983        S  0.25311040  0.36601246  0.96503982    -0.32900
S984        S  0.98274580  0.38693967  0.05427006    -0.32900
H985        H  0.01831561  0.40071491  0.06530791     0.28500
H986        H  0.21207024  0.35405834  0.94965458     0.28500
H987        H  0.19890223  0.39580437  0.98349224     0.19100
H988        H  0.03575561  0.35691559  0.03575055     0.19100
C989        C  0.03089043  0.31331161  0.59224119    -0.06700
C990        C  0.08920395  0.32193774  0.60649578    -0.17900
C991        C  0.09575506  0.32291310  0.63897130     0.10500
C992        C  0.04219450  0.31526901  0.65769085    -0.06700
C993        C  0.98334432  0.30686431  0.64361561    -0.17900
C994        C  0.97809707  0.30544233  0.61127818     0.10500
S995        S  0.17050823  0.33459174  0.65621285    -0.32900
S996        S  0.90580639  0.29248361  0.59626754    -0.32900
H997        H  0.95312679  0.28510241  0.57443642     0.28500
H998        H  0.21053232  0.33721653  0.62861440     0.28500
H999        H  0.12908446  0.32813414  0.59215892     0.19100
H1000       H  0.94336955  0.30065892  0.65796563     0.19100
C1001       C  0.02235898  0.26640227  0.74290450    -0.06700
C1002       C  0.96220264  0.26273886  0.72276648    -0.17900
C1003       C  0.93640051  0.24725026  0.71911176     0.10500
C1004       C  0.97179515  0.23512246  0.73581813    -0.06700
C1005       C  0.03283113  0.23875699  0.75556593    -0.17900
C1006       C  0.05738776  0.25427018  0.75973840     0.10500
S1007       S  0.86019678  0.24315451  0.69244659    -0.32900
S1008       S  0.13057330  0.25796464  0.78791970    -0.32900
H1009       H  0.09399769  0.27118638  0.80065018     0.28500
H1010       H  0.84022667  0.25888117  0.68666869     0.28500
H1011       H  0.93537424  0.27210592  0.70985972     0.19100
H1012       H  0.06030883  0.22946770  0.76850726     0.19100
C1013       C  0.10851112  0.31099437  0.84248414    -0.06700
C1014       C  0.05610212  0.31841087  0.86199569    -0.17900
C1015       C  0.07081404  0.32066008  0.89368348     0.10500
C1016       C  0.13830025  0.31484044  0.90680852    -0.06700
C1017       C  0.19130481  0.30766124  0.88747392    -0.17900
C1018       C  0.17717661  0.30550583  0.85569871     0.10500
S1019       S  0.00338328  0.33198169  0.91559591    -0.32900
S1020       S  0.24873875  0.29514618  0.83420702    -0.32900
H1021       H  0.19780411  0.28584595  0.81720659     0.28500
H1022       H  0.05680182  0.33921027  0.93537116     0.28500
H1023       H  0.00437930  0.32310199  0.85232962     0.19100
H1024       H  0.24293962  0.30307130  0.89743860     0.19100
C1025       C  0.18462836  0.44041995  0.66610760    -0.06700
C1026       C  0.12728418  0.43370947  0.64771008    -0.17900
C1027       C  0.13167938  0.43322344  0.61525165     0.10500
C1028       C  0.19508749  0.43977049  0.60029567    -0.06700
C1029       C  0.25125447  0.44697085  0.61890141    -0.17900
C1030       C  0.24646155  0.44748559  0.65138348     0.10500
S1031       S  0.05451476  0.42384143  0.59502864    -0.32900
S1032       S  0.31855678  0.45815597  0.67243796    -0.32900
H1033       H  0.26942499  0.46484793  0.69440697     0.28500
H1034       H  0.10033034  0.41460554  0.57592991     0.28500
H1035       H  0.07898989  0.42842565  0.65880042     0.19100
H1036       H  0.29909169  0.45254542  0.60806894     0.19100
C1037       C  0.19665474  0.48560957  0.76060359    -0.06700
C1038       C  0.14685550  0.49509170  0.74368839    -0.17900
C1039       C  0.16206803  0.51096804  0.73818433     0.10500
C1040       C  0.22812555  0.51800106  0.75089441    -0.06700
C1041       C  0.27733814  0.50852478  0.76834728    -0.17900
C1042       C  0.26258128  0.49252342  0.77339453     0.10500
S1043       S  0.09579976  0.52081130  0.71317674    -0.32900
S1044       S  0.32683005  0.48146513  0.79757126    -0.32900
H1045       H  0.38433822  0.49281994  0.79931670     0.28500
H1046       H  0.14678994  0.53127202  0.70042089     0.28500
H1047       H  0.09673213  0.48991060  0.73336088     0.19100
H1048       H  0.32712831  0.51377900  0.77871597     0.19100
C1049       C  0.12105198  0.43696290  0.85113285    -0.06700
C1050       C  0.05095353  0.43120377  0.86080966    -0.17900
C1051       C  0.03097479  0.43099856  0.89227312     0.10500
C1052       C  0.08241780  0.43656827  0.91516159    -0.06700
C1053       C  0.15349491  0.44187592  0.90530591    -0.17900
C1054       C  0.17282266  0.44238857  0.87375311     0.10500
S1055       S  0.93980628  0.42316849  0.90134440    -0.32900
S1056       S  0.26190555  0.45084837  0.86279806    -0.32900
H1057       H  0.27950759  0.45754428  0.89197046     0.28500
H1058       H  0.91532068  0.43736975  0.91495995     0.28500
H1059       H  0.01083373  0.42691248  0.84360590     0.19100
H1060       H  0.19443187  0.44579631  0.92239253     0.19100
C1061       C  0.12549850  0.39214543  0.75290808    -0.06700
C1062       C  0.06371942  0.38571612  0.76828809    -0.17900
C1063       C  0.05318892  0.36940969  0.76979641     0.10500
C1064       C  0.10516986  0.35919618  0.75486918    -0.06700
C1065       C  0.16717790  0.36568918  0.73957934    -0.17900
C1066       C  0.17749068  0.38197762  0.73816603     0.10500
S1067       S  0.97612279  0.36204552  0.79284071    -0.32900
S1068       S  0.25613797  0.38900042  0.71593573    -0.32900
H1069       H  0.21791325  0.40206966  0.70365791     0.28500
H1070       H  0.93888380  0.37649168  0.79726733     0.28500
H1071       H  0.02503923  0.39353054  0.78015872     0.19100
H1072       H  0.20682560  0.35804513  0.72778499     0.19100
C1073       C  0.07825506  0.81564148  0.06432777    -0.06700
C1074       C  0.10610299  0.80155949  0.07662769    -0.17900
C1075       C  0.10547210  0.79886691  0.10872082     0.10500
C1076       C  0.07697613  0.81057440  0.12900834    -0.06700
C1077       C  0.05035667  0.82474618  0.11669010    -0.17900
C1078       C  0.05153898  0.82746897  0.08467838     0.10500
S1079       S  0.13725258  0.77993027  0.12215116    -0.32900
S1080       S  0.36392499  0.84505639  0.06891177    -0.32900
H1081       H  0.40586795  0.84270265  0.04168714     0.28500
H1082       H  0.08604422  0.77891207  0.14687127     0.28500
H1083       H  0.12484407  0.79228611  0.06102066     0.19100
H1084       H  0.03027451  0.83393237  0.13220839     0.19100
C1085       C  0.28257032  0.73169603  0.22785556    -0.06700
C1086       C  0.34438730  0.73639030  0.24613954    -0.17900
C1087       C  0.37054341  0.75188741  0.24599751     0.10500
C1088       C  0.33561100  0.76306727  0.22664764    -0.06700
C1089       C  0.27317925  0.75841846  0.20845639    -0.17900
C1090       C  0.24700001  0.74283632  0.20850030     0.10500
S1091       S  0.12751262  0.75698201  0.27408399    -0.32900
S1092       S  0.17121145  0.73775335  0.18215250    -0.32900
H1093       H  0.19721988  0.72249024  0.17534405     0.28500
H1094       H  0.09119655  0.77122594  0.28152563     0.28500
H1095       H  0.37166920  0.72796313  0.26127710     0.19100
H1096       H  0.24597501  0.76688014  0.19338932     0.19100
C1097       C  0.23166680  0.93375554  0.12319457    -0.06700
C1098       C  0.29504222  0.94154291  0.11171966    -0.17900
C1099       C  0.30481090  0.94380214  0.07956458     0.10500
C1100       C  0.25022237  0.93786093  0.05813249    -0.06700
C1101       C  0.18756218  0.92984945  0.06986584    -0.17900
C1102       C  0.17818413  0.92760948  0.10180174     0.10500
S1103       S  0.38422258  0.95534396  0.06692089    -0.32900
S1104       S  0.09775576  0.91629012  0.11367159    -0.32900
H1105       H  0.13507260  0.90908037  0.13874025     0.28500
H1106       H  0.42191199  0.95617641  0.09579016     0.28500
H1107       H  0.33513599  0.94652572  0.12813570     0.19100
H1108       H  0.14585675  0.92497532  0.05398898     0.19100
C1109       C  0.23394201  0.98191458  0.21762050    -0.06700
C1110       C  0.18225294  0.99237284  0.20416086    -0.17900
C1111       C  0.19640485  0.00858260  0.20266204     0.10500
C1112       C  0.26381231  0.01490732  0.21567411    -0.06700
C1113       C  0.31520324  0.00445218  0.22926594    -0.17900
C1114       C  0.30135102  0.98826370  0.23065976     0.10500
S1115       S  0.12626430  0.02009216  0.18278096    -0.32900
S1116       S  0.37292803  0.97689756  0.25012390    -0.32900
H1117       H  0.32415590  0.96660633  0.26493388     0.28500
H1118       H  0.17765822  0.02923286  0.16644689     0.28500
H1119       H  0.13083137  0.98783570  0.19376719     0.19100
H1120       H  0.36670878  0.00896194  0.23963813     0.19100
C1121       C  0.13591008  0.85496290  0.21969982    -0.06700
C1122       C  0.08425345  0.86400336  0.20255621    -0.17900
C1123       C  0.09055513  0.88045078  0.20067515     0.10500
C1124       C  0.15096752  0.88818179  0.21607003    -0.06700
C1125       C  0.20244094  0.87903114  0.23331408    -0.17900
C1126       C  0.19467501  0.86268482  0.23583532     0.10500
S1127       S  0.02210966  0.89109329  0.17777420    -0.32900
S1128       S  0.25767609  0.85265886  0.26203154    -0.32900
H1129       H  0.20485873  0.84158295  0.27233648     0.28500
H1130       H  0.97295250  0.87842911  0.17182922     0.28500
H1131       H  0.03864013  0.85806279  0.19043222     0.19100
H1132       H  0.24814098  0.88471478  0.24588800     0.19100
C1133       C  0.16002345  0.81539460  0.56769804    -0.06700
C1134       C  0.21819103  0.82445494  0.58099066    -0.17900
C1135       C  0.23055292  0.82489942  0.61311278     0.10500
C1136       C  0.18398796  0.81604091  0.63285277    -0.06700
C1137       C  0.12370276  0.80754663  0.61997323    -0.17900
C1138       C  0.11103845  0.80710841  0.58776674     0.10500
S1139       S  0.30596676  0.83723473  0.62746638    -0.32900
S1140       S  0.03563383  0.79463203  0.57415356    -0.32900
H1141       H  0.99921562  0.80660069  0.55771443     0.28500
H1142       H  0.26803987  0.84212430  0.65447247     0.28500
H1143       H  0.25501029  0.83120637  0.56618825     0.19100
H1144       H  0.08765225  0.80076046  0.63504295     0.19100
C1145       C  0.19225948  0.76661882  0.47800450    -0.06700
C1146       C  0.25011501  0.76083695  0.45894483    -0.17900
C1147       C  0.27637323  0.74536223  0.46151809     0.10500
C1148       C  0.24455364  0.73526822  0.48381185    -0.06700
C1149       C  0.18612656  0.74102012  0.50262317    -0.17900
C1150       C  0.15929339  0.75641918  0.49978988     0.10500
S1151       S  0.34674303  0.73896755  0.43431608    -0.32900
S1152       S  0.08615221  0.76250295  0.52593722    -0.32900
H1153       H  0.03772917  0.76758264  0.50217862     0.28500
H1154       H  0.39896499  0.73501548  0.45761741     0.28500
H1155       H  0.27561511  0.76850954  0.44198639     0.19100
H1156       H  0.16038342  0.73337007  0.51955738     0.19100
C1157       C  0.11603365  0.80843638  0.31528816    -0.06700
C1158       C  0.06193263  0.81657210  0.33282164    -0.17900
C1159       C  0.06913021  0.81834890  0.36504389     0.10500
C1160       C  0.13076602  0.81145972  0.38071230    -0.06700
C1161       C  0.18549979  0.80350803  0.36340369    -0.17900
C1162       C  0.17887048  0.80176147  0.33108488     0.10500
S1163       S  0.00011627  0.83039428  0.38443098    -0.32900
S1164       S  0.25236658  0.79050438  0.31253765    -0.32900
H1165       H  0.20783255  0.78365963  0.28929215     0.28500
H1166       H  0.05117003  0.83731549  0.40562338     0.28500
H1167       H  0.01463098  0.82210024  0.32123479     0.19100
H1168       H  0.23290376  0.79818320  0.37531005     0.19100
C1169       C  0.02336305  0.93911587  0.55435048    -0.06700
C1170       C  0.08258604  0.93175645  0.57018846    -0.17900
C1171       C  0.08659268  0.93157023  0.60263712     0.10500
C1172       C  0.02839745  0.93850482  0.62031011    -0.06700
C1173       C  0.96756547  0.94552506  0.60425092    -0.17900
C1174       C  0.96526294  0.94619673  0.57164056     0.10500
S1175       S  0.16704861  0.92244496  0.62037490    -0.32900
S1176       S  0.88996913  0.95714899  0.55378593    -0.32900
H1177       H  0.93466755  0.96383568  0.53048088     0.28500
H1178       H  0.20237015  0.91698969  0.59315410     0.28500
H1179       H  0.12707575  0.92628881  0.55682461     0.19100
H1180       H  0.92246355  0.95106826  0.61715262     0.19100
C1181       C  0.00257919  0.98555019  0.46070817    -0.06700
C1182       C  0.04309561  0.99537729  0.48124964    -0.17900
C1183       C  0.35817156  0.01037367  0.48344961     0.10500
C1184       C  0.29369106  0.01673719  0.46866805    -0.06700
C1185       C  0.24993069  0.00697935  0.44930663    -0.17900
C1186       C  0.27017798  0.99132642  0.44359003     0.10500
S1187       S  0.41387899  0.02119482  0.51161288    -0.32900
S1188       S  0.21323547  0.98053491  0.41592188    -0.32900
H1189       H  0.95255886  0.97318412  0.40302530     0.28500
H1190       H  0.35293612  0.02962614  0.52414769     0.28500
H1191       H  0.09017371  0.99065926  0.49433831     0.19100
H1192       H  0.20118915  0.01176732  0.43740936     0.19100
C1193       C  0.08954832  0.93739678  0.36940463    -0.06700
C1194       C  0.15033738  0.94652308  0.35917209    -0.17900
C1195       C  0.17226302  0.94658385  0.32808270     0.10500
C1196       C  0.13453677  0.93695391  0.30619557    -0.06700
C1197       C  0.07311388  0.92787997  0.31611404    -0.17900
C1198       C  0.05097038  0.92780459  0.34745207     0.10500
S1199       S  0.24535057  0.96005293  0.31760174    -0.32900
S1200       S  0.97638761  0.91459385  0.35805462    -0.32900
H1201       H  0.01322883  0.90912230  0.38495991     0.28500
H1202       H  0.20757490  0.96507873  0.29056513     0.28500
H1203       H  0.18057508  0.95396643  0.37546288     0.19100
H1204       H  0.04343298  0.92046045  0.29947023     0.19100
C1205       C  0.08601626  0.89260258  0.46768564    -0.06700
C1206       C  0.14386745  0.88577321  0.45029187    -0.17900
C1207       C  0.15513628  0.86949064  0.45002793     0.10500
C1208       C  0.10885799  0.85966823  0.46828102    -0.06700
C1209       C  0.05057956  0.86653323  0.48556227    -0.17900
C1210       C  0.03920972  0.88284347  0.48573702     0.10500
S1211       S  0.22685858  0.86204548  0.42447751    -0.32900
S1212       S  0.96662785  0.89053182  0.51073077    -0.32900
H1213       H  0.00676289  0.90412692  0.51965057     0.28500
H1214       H  0.18483948  0.84888283  0.41450758     0.28500
H1215       H  0.17911255  0.89313921  0.43597429     0.19100
H1216       H  0.01510027  0.85920441  0.49983927     0.19100
O1217       O  0.33567957  0.93485339  0.41206845    -0.72400
O1218       O  0.30645348  0.93743554  0.50054893    -0.72600
O1219       O  0.30084812  0.95792777  0.45333153    -0.72500
O1220       O  0.33770772  0.91433091  0.45973435    -0.72500
O1221       O  0.45746609  0.91876723  0.46501977    -0.72400
O1222       O  0.41917620  0.96288337  0.46124438    -0.72500
O1223       O  0.42647292  0.94142638  0.50618879    -0.72400
O1224       O  0.45369724  0.94016620  0.41962793    -0.72600
V1225       V  0.32236576  0.93624065  0.45643117     1.35200
V1226       V  0.43678920  0.94074152  0.46277787     1.35200
C1227       C  0.40079178  0.93704391  0.40087884     0.76800
C1228       C  0.36289939  0.93960672  0.51834650     0.76900
C1229       C  0.35275937  0.96789859  0.45697613     0.76800
C1230       C  0.40322386  0.90909174  0.46408243     0.76700
O1231       O  0.52832998  0.81403618  0.42828469    -0.72400
O1232       O  0.54307203  0.81575807  0.51684104    -0.72600
O1233       O  0.55669513  0.79308227  0.47337870    -0.72500
O1234       O  0.51740969  0.83665578  0.47160302    -0.72500
O1235       O  0.39748428  0.83234465  0.47495739    -0.72400
O1236       O  0.43735469  0.78815442  0.47696712    -0.72500
O1237       O  0.42362807  0.81104327  0.51995183    -0.72400
O1238       O  0.40850384  0.80954780  0.43204640    -0.72600
V1239       V  0.53401375  0.81476908  0.47262537     1.35200
V1240       V  0.41901461  0.81032217  0.47592348     1.35200
C1241       C  0.46505135  0.81196395  0.41514732     0.76800
C1242       C  0.48548240  0.81365562  0.53355186     0.76900
C1243       C  0.50446526  0.78314892  0.47590903     0.76800
C1244       C  0.45132819  0.84199884  0.47204360     0.76700
O1245       O  0.55254134  0.93275445  0.26190898    -0.72400
O1246       O  0.60261694  0.93070388  0.17519596    -0.72600
O1247       O  0.60046522  0.95334876  0.21897107    -0.72500
O1248       O  0.55731731  0.90972801  0.21816682    -0.72500
O1249       O  0.44114063  0.91441516  0.20601263    -0.72400
O1250       O  0.48429677  0.95845563  0.20765364    -0.72500
O1251       O  0.48582120  0.93559319  0.16376878    -0.72400
O1252       O  0.43606821  0.93722276  0.24930885    -0.72600
V1253       V  0.57596858  0.93168133  0.21835827     1.35200
V1254       V  0.46419341  0.93635440  0.20686044     1.35200
C1255       C  0.48517229  0.93532363  0.27025070     0.76800
C1256       C  0.55204392  0.93294332  0.15473264     0.76900
C1257       C  0.54996656  0.96344283  0.21415468     0.76800
C1258       C  0.49237624  0.90449653  0.21185939     0.76700
O1259       O  0.35879132  0.81175405  0.26937406    -0.72400
O1260       O  0.33201646  0.81214915  0.18101318    -0.72600
O1261       O  0.31371119  0.79056366  0.22579946    -0.72500
O1262       O  0.37269600  0.83313082  0.22427505    -0.72500
O1263       O  0.48876463  0.82649526  0.21602030    -0.72400
O1264       O  0.43054493  0.78323450  0.22318511    -0.72500
O1265       O  0.44644290  0.80352290  0.17595503    -0.72400
O1266       O  0.47639748  0.80610205  0.26286622    -0.72600
V1267       V  0.34649209  0.81172304  0.22508173     1.35200
V1268       V  0.45831073  0.80493468  0.21959219     1.35200
C1269       C  0.42326394  0.80911004  0.28117515     0.76800
C1270       C  0.38557092  0.80788408  0.16356351     0.76900
C1271       C  0.36146046  0.77961126  0.22522947     0.76800
C1272       C  0.43959463  0.83719287  0.21935377     0.76700
O1273       O  0.56009897  0.43694281  0.80744002    -0.72400
O1274       O  0.58204853  0.43977194  0.71912332    -0.72600
O1275       O  0.59134365  0.46014153  0.76713968    -0.72500
O1276       O  0.55390422  0.41653629  0.75922663    -0.72500
O1277       O  0.43353793  0.42091530  0.75816884    -0.72400
O1278       O  0.47323576  0.46498668  0.75859167    -0.72500
O1279       O  0.46094608  0.44247215  0.71483186    -0.72400
O1280       O  0.44263095  0.44358865  0.80207290    -0.72600
V1281       V  0.56968475  0.43843218  0.76320228     1.35200
V1282       V  0.45485465  0.44290402  0.75857237     1.35200
C1283       C  0.49712826  0.44016151  0.81960479     0.76800
C1284       C  0.52419111  0.44134316  0.70198174     0.76900
C1285       C  0.53945575  0.47005913  0.76330818     0.76800
C1286       C  0.48776468  0.41124238  0.75740506     0.76700
O1287       O  0.36899711  0.31632484  0.79684622    -0.72400
O1288       O  0.33860545  0.31797845  0.70855015    -0.72600
O1289       O  0.33062886  0.29542236  0.75160658    -0.72500
O1290       O  0.37254760  0.33883955  0.75388792    -0.72500
O1291       O  0.49174171  0.33431484  0.74820157    -0.72400
O1292       O  0.44843552  0.29016616  0.74356956    -0.72500
O1293       O  0.45807238  0.31376169  0.70240746    -0.72400
O1294       O  0.48641955  0.31082165  0.78905268    -0.72600
V1295       V  0.35495720  0.31702192  0.75261429     1.35200
V1296       V  0.46882765  0.31232176  0.74592262     1.35200
C1297       C  0.43386985  0.31335674  0.80791249     0.76800
C1298       C  0.39443645  0.31640688  0.69053224     0.76900
C1299       C  0.38127952  0.28535325  0.74670342     0.76800
C1300       C  0.43860514  0.34407449  0.75229342     0.76700
O1301       O  0.34577912  0.43530306  0.95777077    -0.72400
O1302       O  0.30938342  0.43601529  0.04550385    -0.72600
O1303       O  0.29235697  0.45679069  0.99865084    -0.72500
O1304       O  0.35904979  0.41466968  0.00443601    -0.72500
O1305       O  0.47389728  0.42253450  0.01251445    -0.72400
O1306       O  0.40607421  0.46515631  0.00692580    -0.72500
O1307       O  0.42301067  0.44439475  0.05306504    -0.72400
O1308       O  0.45977641  0.44346084  0.96686369    -0.72600
V1309       V  0.32875959  0.43589069  0.00172529     1.35200
V1310       V  0.43839173  0.44375320  0.00970635     1.35200
C1311       C  0.41015475  0.43904581  0.94768760     0.76800
C1312       C  0.36117782  0.44007289  0.06436746     0.76900
C1313       C  0.33728403  0.46820695  0.00163905     0.76800
C1314       C  0.42714308  0.41135082  0.00940856     0.76700
O1315       O  0.43829976  0.33501263  0.00475907    -0.72400
O1316       O  0.47688660  0.29084900  0.99722487    -0.72600
O1317       O  0.46862571  0.31169330  0.04448992    -0.72500
O1318       O  0.44270290  0.31426066  0.95772471    -0.72500
O1319       O  0.56277921  0.31767821  0.95190056    -0.72400
O1320       O  0.58677618  0.31759137  0.04036862    -0.72500
O1321       O  0.59645269  0.29588477  0.99498624    -0.72400
O1322       O  0.55685700  0.33960034  0.99728819    -0.72600
V1323       V  0.45896696  0.31302333  0.00096915     1.35200
V1324       V  0.57349218  0.31760456  0.99620031     1.35200
C1325       C  0.49135057  0.34484441  0.00153817     0.76800
C1326       C  0.54403233  0.28589577  0.99527396     0.76900
C1327       C  0.53122718  0.31422242  0.05745509     0.76800
C1328       C  0.49759165  0.31643442  0.93994575     0.76700
O1329       O  0.43630881  0.18576570  0.52967125    -0.72400
O1330       O  0.41202122  0.18828853  0.44154318    -0.72600
O1331       O  0.43847942  0.16511601  0.48204626    -0.72500
O1332       O  0.40667151  0.20884161  0.48941085    -0.72500
O1333       O  0.52635920  0.21314820  0.48485801    -0.72400
O1334       O  0.55857093  0.16880574  0.47714612    -0.72500
O1335       O  0.53230040  0.19224502  0.43748155    -0.72400
O1336       O  0.55630290  0.18956434  0.52421223    -0.72600
V1337       V  0.42566262  0.18709052  0.48555087     1.35200
V1338       V  0.54100240  0.19090891  0.48098693     1.35200
C1339       C  0.50129419  0.18701847  0.54173378     0.76800
C1340       C  0.46902069  0.19050661  0.42458867     0.76900
C1341       C  0.50335998  0.15939964  0.47873439     0.76800
C1342       C  0.46048370  0.21848005  0.48906779     0.73500
O1343       O  0.62188920  0.06549039  0.51642577    -0.72400
O1344       O  0.64052264  0.06468665  0.42802787    -0.72600
O1345       O  0.61263858  0.08701799  0.47090430    -0.72500
O1346       O  0.65207249  0.04338620  0.47325465    -0.72500
O1347       O  0.53306898  0.03837297  0.46750155    -0.72400
O1348       O  0.49265083  0.08243982  0.46738798    -0.72500
O1349       O  0.52057931  0.06046307  0.42379896    -0.72400
O1350       O  0.50261684  0.06041741  0.51151749    -0.72600
V1351       V  0.62942176  0.06507176  0.47212006     1.35200
V1352       V  0.51452972  0.06049594  0.46770316     1.35200
C1353       C  0.55860959  0.06316440  0.52896373     0.76800
C1354       C  0.58335011  0.06227812  0.41083224     0.76900
C1355       C  0.54641435  0.09221423  0.46853436     0.76800
C1356       C  0.59997023  0.03340915  0.47029874     0.76700
O1357       O  0.58787622  0.08234731  0.72617338    -0.72400
O1358       O  0.54944717  0.03805610  0.72215159    -0.72600
O1359       O  0.57898646  0.06046730  0.68045300    -0.72500
O1360       O  0.56159353  0.05995885  0.76804705    -0.72500
O1361       O  0.44294465  0.06555506  0.76435199    -0.72400
O1362       O  0.45883291  0.06412914  0.67558879    -0.72500
O1363       O  0.42981820  0.04304653  0.72018381    -0.72400
O1364       O  0.46845891  0.08661539  0.71990407    -0.72600
V1365       V  0.56722250  0.06027843  0.72409758     1.35200
V1366       V  0.45232484  0.06472368  0.72003841     1.35200
C1367       C  0.53376964  0.09201843  0.72411706     0.76800
C1368       C  0.48223983  0.03308065  0.72107757     0.76900
C1369       C  0.52236915  0.06201258  0.66292389     0.76800
C1370       C  0.50027478  0.06303836  0.78136981     0.76700
O1371       O  0.51665753  0.16944431  0.73451489    -0.72400
O1372       O  0.56252594  0.21348801  0.73630092    -0.72600
O1373       O  0.51868747  0.19244479  0.69258824    -0.72500
O1374       O  0.55655992  0.19048180  0.77857565    -0.72500
O1375       O  0.67521838  0.18607008  0.77036936    -0.72400
O1376       O  0.63472752  0.18642243  0.68300148    -0.72500
O1377       O  0.34147111  0.21024342  0.72756362    -0.72400
O1378       O  0.63527471  0.16458920  0.72753950    -0.72600
V1379       V  0.54087411  0.19139472  0.73533901     1.35200
V1380       V  0.65374879  0.18634496  0.72681624     1.35200
C1381       C  0.56929441  0.15954928  0.73072577     0.76800
C1382       C  0.62954896  0.21804260  0.73177341     0.76900
C1383       C  0.56912687  0.18957590  0.67298155     0.76800
C1384       C  0.62151981  0.18797080  0.78926232     0.76700
O1385       O  0.52083426  0.53618272  0.99769198    -0.72400
O1386       O  0.47276413  0.57997508  0.99831507    -0.72600
O1387       O  0.50917173  0.55873044  0.95430952    -0.72500
O1388       O  0.48347740  0.55741721  0.04158197    -0.72500
O1389       O  0.60032732  0.56405479  0.04860805    -0.72400
O1390       O  0.62805842  0.56346664  0.96084961    -0.72500
O1391       O  0.59172928  0.58529610  0.00304758    -0.72400
O1392       O  0.63805061  0.54197710  0.00635636    -0.72600
V1393       V  0.49879269  0.55815524  0.99811802     1.35200
V1394       V  0.61226312  0.56355838  0.00460621     1.35200
C1395       C  0.58772738  0.53164230  0.00257536     0.76800
C1396       C  0.52491155  0.59009693  0.00024644     0.76900
C1397       C  0.57269785  0.56139561  0.94255165     0.76800
C1398       C  0.53686195  0.56080301  0.05998749     0.76700
O1399       O  0.54164607  0.66644515  0.98549354    -0.72400
O1400       O  0.51706987  0.71096644  0.98158405    -0.72600
O1401       O  0.54340698  0.69000522  0.02723567    -0.72500
O1402       O  0.51772482  0.68757098  0.94002099    -0.72500
O1403       O  0.39676530  0.68592947  0.94559383    -0.72400
O1404       O  0.42410835  0.68608210  0.03378834    -0.72500
O1405       O  0.39780444  0.70813947  0.99064331    -0.72400
O1406       O  0.42080889  0.66375066  0.98943071    -0.72600
V1407       V  0.52764314  0.68867851  0.98375706     1.35200
V1408       V  0.41208963  0.68601928  0.98968666     1.35200
C1409       C  0.48506850  0.65746790  0.98793453     0.76800
C1410       C  0.45298307  0.71709194  0.98567724     0.76900
C1411       C  0.48898348  0.68817686  0.04551581     0.76800
C1412       C  0.45316068  0.68681584  0.92776609     0.76700
O1413       O  0.50585576  0.58325455  0.25121668    -0.72400
O1414       O  0.47194206  0.53908921  0.25351532    -0.72600
O1415       O  0.51097658  0.55986149  0.20959716    -0.72500
O1416       O  0.47052548  0.56268802  0.29513718    -0.72500
O1417       O  0.35144582  0.56616689  0.28569530    -0.72400
O1418       O  0.39267340  0.56356765  0.19867746    -0.72500
O1419       O  0.35408394  0.54295955  0.24285973    -0.72400
O1420       O  0.38722844  0.58686644  0.24136051    -0.72600
V1421       V  0.48741037  0.56125102  0.25214167     1.35200
V1422       V  0.37356260  0.56481619  0.24230602     1.35200
C1423       C  0.45189029  0.59258985  0.24583631     0.76800
C1424       C  0.40682144  0.53347951  0.24852012     0.76900
C1425       C  0.45958775  0.56142621  0.18960583     0.76800
C1426       C  0.40514375  0.56510565  0.30511781     0.76700
O1427       O  0.53965576  0.71212923  0.23312163    -0.72400
O1428       O  0.47077713  0.67012012  0.24513432    -0.72600
O1429       O  0.52301591  0.69323967  0.28232974    -0.72500
O1430       O  0.48566987  0.68901087  0.19607084    -0.72500
O1431       O  0.60171578  0.68179437  0.18936918    -0.72400
O1432       O  0.63427376  0.68339426  0.27653054    -0.72500
O1433       O  0.58433354  0.66171570  0.23662524    -0.72400
O1434       O  0.65410657  0.70349126  0.22949533    -0.72600
V1435       V  0.50691860  0.69099660  0.23906301     1.35200
V1436       V  0.61639370  0.68277050  0.23303975     1.35200
C1437       C  0.60902361  0.71495445  0.22960410     0.76800
C1438       C  0.51666157  0.65878475  0.24298051     0.76900
C1439       C  0.58365283  0.68847564  0.29444664     0.76800
C1440       C  0.53771183  0.68489194  0.17799546     0.76700
O1441       O  0.40578836  0.93765414  0.75941174    -0.72400
O1442       O  0.41761791  0.93452773  0.67038537    -0.72600
O1443       O  0.44067993  0.95732851  0.71272859    -0.72500
O1444       O  0.71577369  0.91431643  0.71596554    -0.72500
O1445       O  0.59794554  0.92011366  0.70975436    -0.72400
O1446       O  0.65170353  0.96372553  0.71062692    -0.72500
O1447       O  0.62902896  0.94182602  0.66620550    -0.72400
O1448       O  0.61676244  0.94225917  0.75367388    -0.72600
V1449       V  0.41042847  0.93608000  0.71484796     1.35200
V1450       V  0.62613836  0.94187824  0.71006949     1.35200
C1451       C  0.67383662  0.94015129  0.77064906     0.76800
C1452       C  0.36165089  0.93837914  0.65355162     0.76900
C1453       C  0.39146921  0.96796964  0.71202869     0.76800
C1454       C  0.64847908  0.90975763  0.71367286     0.76700
O1455       O  0.53015462  0.81695453  0.77341986    -0.72400
O1456       O  0.47824038  0.81610109  0.68709204    -0.72600
O1457       O  0.48105510  0.79479043  0.73302090    -0.72500
O1458       O  0.52505897  0.83813153  0.72771786    -0.72500
O1459       O  0.64304953  0.83286328  0.72013244    -0.72400
O1460       O  0.59422593  0.78910063  0.71821987    -0.72500
O1461       O  0.59611852  0.81243059  0.67616139    -0.72400
O1462       O  0.64359512  0.80972813  0.76172417    -0.72600
V1463       V  0.50574599  0.81635568  0.73012116     1.35200
V1464       V  0.61700918  0.81107340  0.71922998     1.35200
C1465       C  0.59647716  0.81365730  0.78218066     0.76800
C1466       C  0.52956479  0.81477087  0.66694089     0.76900
C1467       C  0.52923282  0.78448212  0.72592287     0.76800
C1468       C  0.59139784  0.84294406  0.72394827     0.76700
O1469       O  0.56150902  0.93741186  0.91595587    -0.72400
O1470       O  0.53782085  0.93778522  0.00410696    -0.72600
O1471       O  0.52526759  0.95935957  0.95869505    -0.72500
O1472       O  0.57079579  0.91596159  0.96142958    -0.72500
O1473       O  0.69003922  0.92110273  0.96554612    -0.72400
O1474       O  0.64298317  0.96508227  0.96610181    -0.72500
O1475       O  0.65698861  0.94256301  0.00965935    -0.72400
O1476       O  0.67904006  0.94353333  0.92208055    -0.72600
V1477       V  0.55116631  0.93777134  0.96012482     1.35200
V1478       V  0.66499477  0.94302260  0.96571200     1.35200
C1479       C  0.62497619  0.94022113  0.90395808     0.76800
C1480       C  0.59419838  0.93980429  0.02196838     0.76900
C1481       C  0.57570448  0.96968428  0.96204275     0.76800
C1482       C  0.63742499  0.91104181  0.96384037     0.76700
O1483       O  0.75011024  0.81502622  0.92324810    -0.72400
O1484       O  0.43860616  0.81385590  0.01257163    -0.72600
O1485       O  0.43868906  0.79237215  0.96622414    -0.72500
O1486       O  0.74671597  0.83786951  0.96698385    -0.72500
O1487       O  0.62788132  0.83399354  0.97498441    -0.72400
O1488       O  0.66270312  0.78969512  0.97186451    -0.72500
O1489       O  0.65721288  0.81152274  0.01690925    -0.72400
O1490       O  0.62992328  0.81211299  0.93003021    -0.72600
V1491       V  0.76165293  0.81580121  0.96765589     1.35200
V1492       V  0.64684469  0.81188643  0.97329984     1.35200
C1493       C  0.68443695  0.81366319  0.91176894     0.76800
C1494       C  0.72021311  0.81409001  0.02951125     0.76900
C1495       C  0.72910734  0.78426110  0.97027245     0.76800
C1496       C  0.68181035  0.84351960  0.97112922     0.76700
O1497       O  0.36130680  0.58353184  0.75251648    -0.72400
O1498       O  0.67496438  0.54147944  0.75744630    -0.72600
O1499       O  0.35830785  0.56088382  0.70874092    -0.72500
O1500       O  0.68149727  0.56499689  0.79926324    -0.72500
O1501       O  0.56271607  0.56934633  0.79082344    -0.72400
O1502       O  0.59614084  0.56686855  0.70354616    -0.72500
O1503       O  0.55779209  0.54651675  0.74789614    -0.72400
O1504       O  0.60063857  0.58997648  0.74618735    -0.72600
V1505       V  0.69523190  0.56351747  0.75558694     1.35200
V1506       V  0.58174744  0.56813383  0.74730973     1.35200
C1507       C  0.66642068  0.59523087  0.74988941     0.76800
C1508       C  0.60835547  0.53651467  0.75323424     0.76900
C1509       C  0.66074780  0.56381729  0.69291307     0.76800
C1510       C  0.61638290  0.56736965  0.80988831     0.76700
O1511       O  0.44531955  0.68579113  0.68820121    -0.72400
O1512       O  0.48028229  0.68817403  0.77583472    -0.72600
O1513       O  0.43984052  0.66526726  0.73556790    -0.72500
O1514       O  0.48763551  0.70850368  0.72856232    -0.72500
O1515       O  0.37158500  0.71469473  0.73813271    -0.72400
O1516       O  0.65515805  0.67226302  0.73969380    -0.72500
O1517       O  0.36118084  0.69273920  0.78240153    -0.72400
O1518       O  0.66002567  0.69393930  0.69497011    -0.72600
V1519       V  0.46106598  0.68704104  0.73213077     1.35200
V1520       V  0.34827263  0.69276672  0.73885140     1.35200
C1521       C  0.38114430  0.68905122  0.67696883     0.76800
C1522       C  0.42565932  0.69061365  0.79399384     0.76900
C1523       C  0.37261815  0.66071022  0.73831623     0.76800
C1524       C  0.43854380  0.71900804  0.73293922     0.76700
O1525       O  0.34142114  0.53778276  0.49617386    -0.72400
O1526       O  0.63617586  0.58177694  0.49695025    -0.72600
O1527       O  0.32483562  0.55980200  0.45189606    -0.72500
O1528       O  0.64809287  0.56007341  0.54188624    -0.72500
O1529       O  0.42949902  0.56600506  0.54375756    -0.72400
O1530       O  0.44498514  0.56405385  0.45497807    -0.72500
O1531       O  0.41859279  0.58669477  0.49679697    -0.72400
O1532       O  0.45985225  0.54328523  0.50162763    -0.72600
V1533       V  0.32135116  0.55998888  0.49564547     1.35200
V1534       V  0.43597722  0.56488215  0.49923732     1.35200
C1535       C  0.40869379  0.53304061  0.49941364     0.76800
C1536       C  0.69028136  0.59150205  0.49709500     0.76900
C1537       C  0.38646456  0.56192754  0.43836213     0.76800
C1538       C  0.36668623  0.56333406  0.55653611     0.76700
O1539       O  0.70258899  0.66867342  0.48420071    -0.72400
O1540       O  0.66388753  0.71291889  0.48185645    -0.72600
O1541       O  0.69995421  0.69202303  0.52643337    -0.72500
O1542       O  0.66983145  0.68959008  0.43991108    -0.72500
O1543       O  0.54991471  0.68601312  0.44633865    -0.72400
O1544       O  0.58153829  0.68708612  0.53407173    -0.72500
O1545       O  0.54595229  0.70826108  0.49053487    -0.72400
O1546       O  0.58309163  0.66454751  0.48987020    -0.72600
V1547       V  0.68178671  0.69073197  0.48328575     1.35200
V1548       V  0.56745407  0.68653578  0.49010423     1.35200
C1549       C  0.64864808  0.65904015  0.48705520     0.76800
C1550       C  0.59753500  0.71806888  0.48542465     0.76900
C1551       C  0.64660411  0.68982770  0.54501210     0.76800
C1552       C  0.60520296  0.68776541  0.42829990     0.76700
O1553       O  0.51581362  0.43468782  0.46126482    -0.72400
O1554       O  0.48348802  0.43755627  0.54894315    -0.72600
O1555       O  0.46882765  0.45734394  0.50096218    -0.72500
O1556       O  0.52810512  0.41477109  0.50926664    -0.72500
O1557       O  0.64512364  0.42188469  0.51326141    -0.72400
O1558       O  0.58333034  0.46492025  0.51032514    -0.72500
O1559       O  0.60098603  0.44356822  0.55536582    -0.72400
O1560       O  0.62956028  0.44318859  0.46839965    -0.72600
V1561       V  0.50122525  0.43623706  0.50520754     1.35200
V1562       V  0.61247982  0.44328936  0.51171503     1.35200
C1563       C  0.57902808  0.43831835  0.44990048     0.76800
C1564       C  0.53777013  0.44067176  0.56723511     0.76900
C1565       C  0.51507685  0.46844599  0.50522616     0.76800
C1566       C  0.59649530  0.41099017  0.51202468     0.76700
O1567       O  0.61034808  0.33467382  0.50421340    -0.72400
O1568       O  0.32471662  0.28977022  0.49870199    -0.72600
O1569       O  0.31047089  0.31214956  0.54289049    -0.72500
O1570       O  0.61371715  0.31309903  0.45853873    -0.72500
O1571       O  0.40768682  0.31721139  0.45020124    -0.72400
O1572       O  0.42972003  0.31697493  0.53898792    -0.72500
O1573       O  0.44273119  0.29542381  0.49289097    -0.72400
O1574       O  0.39754082  0.33892231  0.49612133    -0.72600
V1575       V  0.30333808  0.31179204  0.49915985     1.35200
V1576       V  0.41724245  0.31704615  0.49466942     1.35200
C1577       C  0.66342667  0.34455133  0.50183349     0.76800
C1578       C  0.39183146  0.28513682  0.49483392     0.76900
C1579       C  0.37302478  0.31444697  0.55606088     0.76800
C1580       C  0.34435963  0.31393067  0.43799818     0.76700
O1581       O  0.38354030  0.43442145  0.30492347    -0.72400
O1582       O  0.40497897  0.43605248  0.21641221    -0.72600
O1583       O  0.40873069  0.45712359  0.26306455    -0.72500
O1584       O  0.38237541  0.41299834  0.25786119    -0.72500
O1585       O  0.58425758  0.41747946  0.25530699    -0.72400
O1586       O  0.61155514  0.46191997  0.25640076    -0.72500
O1587       O  0.60654956  0.43950333  0.21235560    -0.72400
O1588       O  0.58648907  0.43975599  0.29977128    -0.72600
V1589       V  0.39260884  0.43517087  0.26053785     1.35200
V1590       V  0.59959151  0.43963023  0.25613627     1.35200
C1591       C  0.64233114  0.43769213  0.31755222     0.76800
C1592       C  0.34724481  0.43742629  0.19915147     0.76900
C1593       C  0.35416132  0.46642459  0.25958543     0.76800
C1594       C  0.64072528  0.40841263  0.25604712     0.76700
O1595       O  0.53132133  0.31311245  0.29728845    -0.72400
O1596       O  0.50175156  0.31465710  0.20931836    -0.72600
O1597       O  0.49573364  0.29199330  0.25210852    -0.72500
O1598       O  0.53433715  0.33560876  0.25442566    -0.72500
O1599       O  0.32421003  0.32971709  0.24621138    -0.72400
O1600       O  0.61375162  0.28719120  0.24398379    -0.72500
O1601       O  0.62157171  0.31085336  0.20304016    -0.72400
O1602       O  0.64979450  0.30816258  0.28991319    -0.72600
V1603       V  0.51809576  0.31370936  0.25317244     1.35200
V1604       V  0.63243004  0.30940689  0.24658365     1.35200
C1605       C  0.59661947  0.31090139  0.30844617     0.76800
C1606       C  0.55761047  0.31338966  0.19132981     0.76900
C1607       C  0.54712890  0.28207979  0.24721360     0.76800
C1608       C  0.60018414  0.34101643  0.25288786     0.76700
O1609       O  0.49965492  0.06701219  0.02181701    -0.72400
O1610       O  0.53330562  0.06849776  0.93409464    -0.72600
O1611       O  0.49521833  0.08945824  0.97826602    -0.72500
O1612       O  0.54062438  0.04594850  0.97765896    -0.72500
O1613       O  0.42423913  0.04039306  0.96684789    -0.72400
O1614       O  0.37661955  0.08428305  0.97183482    -0.72500
O1615       O  0.41412034  0.06428759  0.92617478    -0.72400
O1616       O  0.38362783  0.06058943  0.01243725    -0.72600
V1617       V  0.51501650  0.06760284  0.97779189     1.35200
V1618       V  0.40196968  0.06245162  0.96950988     1.35200
C1619       C  0.43500825  0.06359196  0.03201945     0.76800
C1620       C  0.47829761  0.06708767  0.91532507     0.76900
C1621       C  0.42851113  0.09436610  0.97579422     0.76800
C1622       C  0.49094766  0.03568143  0.97195146     0.76700
O1623       O  0.28555707  0.18610940  0.02900282    -0.72400
O1624       O  0.26236292  0.18791491  0.94080378    -0.72600
O1625       O  0.29807473  0.16546023  0.98151099    -0.72500
O1626       O  0.58299836  0.21045539  0.98638992    -0.72500
O1627       O  0.36439028  0.21500555  0.98536990    -0.72400
O1628       O  0.41581807  0.17157208  0.97585898    -0.72500
O1629       O  0.37917369  0.19489694  0.93704149    -0.72400
O1630       O  0.40427083  0.19158580  0.02387206    -0.72600
V1631       V  0.27540445  0.18712551  0.98479460     1.35200
V1632       V  0.38858678  0.19318367  0.98062097     1.35200
C1633       C  0.34979230  0.18834853  0.04124597     0.76800
C1634       C  0.31747483  0.19169936  0.92385680     0.76900
C1635       C  0.36500310  0.16113310  0.97708022     0.76800
C1636       C  0.29613720  0.21910442  0.98801806     0.76700
O1637       O  0.60374428  0.06226043  0.17038718    -0.72400
O1638       O  0.56217815  0.06348337  0.25761161    -0.72600
O1639       O  0.60283942  0.08461129  0.21485516    -0.72500
O1640       O  0.55998238  0.04100839  0.21294306    -0.72500
O1641       O  0.67725463  0.03584042  0.22212198    -0.72400
O1642       O  0.39457648  0.08068517  0.22581274    -0.72500
O1643       O  0.67973034  0.05821418  0.26692956    -0.72400
O1644       O  0.39735545  0.05828104  0.18197098    -0.72600
V1645       V  0.58434817  0.06270831  0.21413035     1.35200
V1646       V  0.37001937  0.05885890  0.22426630     1.35200
C1647       C  0.34830090  0.06079993  0.16135618     0.76800
C1648       C  0.61516919  0.06144706  0.27705933     0.76900
C1649       C  0.34386356  0.09078994  0.22030424     0.76800
C1650       C  0.61111948  0.03089989  0.21650315     0.76700
O1651       O  0.35446878  0.16763159  0.23443505    -0.72400
O1652       O  0.40045099  0.21150846  0.23467135    -0.72600
O1653       O  0.36276676  0.18993144  0.19119935    -0.72500
O1654       O  0.38925179  0.18935868  0.27810893    -0.72500
O1655       O  0.50879622  0.18519591  0.27269586    -0.72400
O1656       O  0.47932830  0.18334256  0.18457060    -0.72500
O1657       O  0.51764474  0.20596513  0.22623755    -0.72400
O1658       O  0.47364407  0.16241710  0.23097265    -0.72600
V1659       V  0.37905945  0.18950391  0.23449308     1.35200
V1660       V  0.49267145  0.18432070  0.22871128     1.35200
C1661       C  0.40679381  0.15752847  0.23278782     0.76800
C1662       C  0.46725709  0.21621478  0.23036199     0.76900
C1663       C  0.41539219  0.18642754  0.17290899     0.76800
C1664       C  0.45310512  0.18748721  0.29044200     0.76700
C1665       C  0.36002517  0.10793479  0.22222534    -0.06700
C1666       C  0.42246931  0.11296112  0.23985195    -0.17900
C1667       C  0.43841170  0.12899100  0.24428049     0.10500
C1668       C  0.39021292  0.14043653  0.23115911    -0.06700
C1669       C  0.32743031  0.13544456  0.21377664    -0.17900
C1670       C  0.31290460  0.11945101  0.20848548     0.10500
S1671       S  0.51819639  0.13449462  0.26815741    -0.32900
S1672       S  0.56522730  0.11274140  0.17848825    -0.32900
H1673       H  0.60630611  0.10040500  0.16464730     0.28500
H1674       H  0.54963858  0.11938367  0.27104437     0.28500
H1675       H  0.45834198  0.10427327  0.25070110     0.19100
H1676       H  0.29122819  0.14410192  0.20292630     0.19100
C1677       C  0.36278095  0.18730061  0.07495905    -0.06700
C1678       C  0.42245377  0.17790442  0.08558942    -0.17900
C1679       C  0.44121391  0.17720089  0.11724357     0.10500
C1680       C  0.40039315  0.18639735  0.13891453    -0.06700
C1681       C  0.33969717  0.19553909  0.12805817    -0.17900
C1682       C  0.32053798  0.19609419  0.09652882     0.10500
S1683       S  0.51266355  0.16331364  0.12850902    -0.32900
S1684       S  0.57321571  0.20988295  0.08447392    -0.32900
H1685       H  0.60546797  0.21500969  0.05660691     0.28500
H1686       H  0.55967530  0.17477149  0.14195576     0.28500
H1687       H  0.45442576  0.17094890  0.06904866     0.19100
H1688       H  0.63374979  0.20281791  0.14352775     0.19100
C1689       C  0.37095055  0.06113897  0.12846009    -0.06700
C1690       C  0.43396154  0.07013689  0.12027062    -0.17900
C1691       C  0.45760343  0.07115613  0.08919228     0.10500
C1692       C  0.41728447  0.06285598  0.06572987    -0.06700
C1693       C  0.35467570  0.05383072  0.07436454    -0.17900
C1694       C  0.33214658  0.05264690  0.10521473     0.10500
S1695       S  0.53606082  0.08374437  0.08008050    -0.32900
S1696       S  0.25579089  0.03953350  0.11358958    -0.32900
H1697       H  0.29121392  0.03336825  0.14020550     0.28500
H1698       H  0.55829366  0.08712023  0.11090325     0.28500
H1699       H  0.46378426  0.07666303  0.13833496     0.19100
H1700       H  0.32270327  0.04740800  0.05681446     0.19100
C1701       C  0.41235930  0.11150459  0.97684320    -0.06700
C1702       C  0.35013550  0.11725919  0.96018284    -0.17900
C1703       C  0.33526000  0.13341900  0.95866160     0.10500
C1704       C  0.38289305  0.14421028  0.97454010    -0.06700
C1705       C  0.44520671  0.13851881  0.99100796    -0.17900
C1706       C  0.45970577  0.12238456  0.99280307     0.10500
S1707       S  0.25634644  0.13952634  0.93508161    -0.32900
S1708       S  0.53592729  0.11651539  0.01793205    -0.32900
H1709       H  0.49476148  0.10408812  0.03074923     0.28500
H1710       H  0.29045742  0.15340903  0.92451617     0.28500
H1711       H  0.31376551  0.10914674  0.94756461     0.19100
H1712       H  0.48101825  0.14666922  0.00382637     0.19100
C1713       C  0.52810577  0.26505003  0.24410320    -0.06700
C1714       C  0.57179577  0.25542353  0.22458803    -0.17900
C1715       C  0.55128257  0.23976488  0.21811780     0.10500
C1716       C  0.48671801  0.23321907  0.23225801    -0.06700
C1717       C  0.44280167  0.24288833  0.25145155    -0.17900
C1718       C  0.46299706  0.25848179  0.25783149     0.10500
S1719       S  0.60712092  0.22920783  0.19003205    -0.32900
S1720       S  0.40582148  0.26885540  0.28562451    -0.32900
H1721       H  0.46857998  0.27569196  0.30023568     0.28500
H1722       H  0.54564637  0.22129904  0.17623674     0.28500
H1723       H  0.62070693  0.26029885  0.21326321     0.19100
H1724       H  0.39384567  0.23806112  0.26283835     0.19100
C1725       C  0.63140817  0.39118435  0.25441118    -0.06700
C1726       C  0.57245094  0.38443262  0.27107932    -0.17900
C1727       C  0.56347591  0.36813206  0.27231434     0.10500
C1728       C  0.61277935  0.35818415  0.25538185    -0.06700
C1729       C  0.34422624  0.36348602  0.23661796    -0.17900
C1730       C  0.68170483  0.38129032  0.23797373     0.10500
S1731       S  0.49056266  0.36087355  0.29742069    -0.32900
S1732       S  0.42416720  0.38736307  0.20957766    -0.32900
H1733       H  0.38250717  0.40069981  0.20082394     0.28500
H1734       H  0.53388922  0.34834463  0.30904489     0.28500
H1735       H  0.53453715  0.39191123  0.28421967     0.19100
H1736       H  0.37843061  0.35603308  0.22180060     0.19100
C1737       C  0.33156149  0.31261675  0.40400325    -0.06700
C1738       C  0.27686099  0.30176555  0.39384439    -0.17900
C1739       C  0.56732882  0.30520243  0.36457242     0.10500
C1740       C  0.61259465  0.31235729  0.34210985    -0.06700
C1741       C  0.67531941  0.32128780  0.35178787    -0.17900
C1742       C  0.69463782  0.32290656  0.38345975     0.10500
S1743       S  0.48805202  0.29312093  0.35349408    -0.32900
S1744       S  0.77380948  0.33510765  0.39451341    -0.32900
H1745       H  0.80021459  0.33786348  0.36427916     0.28500
H1746       H  0.46064263  0.29043260  0.38356905     0.28500
H1747       H  0.24933024  0.29428770  0.41044910     0.19100
H1748       H  0.70903758  0.32705541  0.33439527     0.19100
C1749       C  0.59539375  0.43712312  0.41598616    -0.06700
C1750       C  0.66061800  0.44459380  0.40495980    -0.17900
C1751       C  0.67929268  0.44442301  0.37330403     0.10500
C1752       C  0.63052048  0.43705999  0.35164962    -0.06700
C1753       C  0.56619273  0.42931021  0.36259025    -0.17900
C1754       C  0.54940069  0.42882604  0.39437860     0.10500
S1755       S  0.76347580  0.45434784  0.36099602    -0.32900
S1756       S  0.47076979  0.41681843  0.40561753    -0.32900
H1757       H  0.51023298  0.40940851  0.42992515     0.28500
H1758       H  0.79268666  0.45777447  0.39080384     0.28500
H1759       H  0.69706207  0.45078949  0.42120138     0.19100
H1760       H  0.52931356  0.42327348  0.34621246     0.19100
C1761       C  0.61832486  0.39417738  0.51226902    -0.06700
C1762       C  0.67851126  0.38918729  0.49371959    -0.17900
C1763       C  0.69371972  0.37313718  0.48920913     0.10500
C1764       C  0.64899081  0.36169677  0.50425008    -0.06700
C1765       C  0.59015098  0.36677266  0.52337155    -0.17900
C1766       C  0.57508143  0.38275393  0.52777020     0.10500
S1767       S  0.76710892  0.36813622  0.46217316    -0.32900
S1768       S  0.50259382  0.38782404  0.55490177    -0.32900
H1769       H  0.54476261  0.40027036  0.56804141     0.28500
H1770       H  0.41045902  0.35616110  0.44828519     0.28500
H1771       H  0.71144882  0.39780916  0.48132120     0.19100
H1772       H  0.55647117  0.35822023  0.53562136     0.19100
C1773       C  0.48839108  0.48502261  0.50429577    -0.06700
C1774       C  0.42648173  0.48864851  0.48510956    -0.17900
C1775       C  0.39714648  0.50393685  0.48349343     0.10500
C1776       C  0.42989863  0.51612911  0.50170588    -0.06700
C1777       C  0.49104036  0.51239738  0.52131115    -0.17900
C1778       C  0.52083382  0.49711601  0.52273626     0.10500
S1779       S  0.32299225  0.50709978  0.45556065    -0.32900
S1780       S  0.59848603  0.49328006  0.54899466    -0.32900
H1781       H  0.61538218  0.50906809  0.55628996     0.28500
H1782       H  0.27581801  0.51525471  0.47599092     0.28500
H1783       H  0.40122752  0.47948997  0.47074407     0.19100
H1784       H  0.51617046  0.52161426  0.53551529     0.19100
C1785       C  0.66022616  0.64172913  0.48821389    -0.06700
C1786       C  0.60670977  0.63267920  0.50409257    -0.17900
C1787       C  0.61537989  0.61644741  0.50783974     0.10500
C1788       C  0.67820102  0.60873530  0.49481250    -0.06700
C1789       C  0.39072804  0.61784731  0.47500741    -0.17900
C1790       C  0.38289347  0.63415525  0.47184316     0.10500
S1791       S  0.54692944  0.60657277  0.53134520    -0.32900
S1792       S  0.44763143  0.64399057  0.44643128    -0.32900
H1793       H  0.39271401  0.65375765  0.43294407     0.28500
H1794       H  0.59965909  0.59705398  0.54686726     0.28500
H1795       H  0.55860447  0.63836927  0.51468702     0.19100
H1796       H  0.43600103  0.61193085  0.46284717     0.19100
C1797       C  0.36486713  0.68868031  0.64302351    -0.06700
C1798       C  0.63435825  0.69834025  0.63137028    -0.17900
C1799       C  0.61673012  0.69864542  0.59966648     0.10500
C1800       C  0.66177867  0.69015037  0.57859623    -0.06700
C1801       C  0.72417958  0.68173949  0.58967008    -0.17900
C1802       C  0.74133890  0.68124307  0.62141066     0.10500
S1803       S  0.53860155  0.71070503  0.58748127    -0.32900
S1804       S  0.48870330  0.66839963  0.63185133    -0.32900
H1805       H  0.44905118  0.66070049  0.65551225     0.28500
H1806       H  0.57209129  0.71582956  0.55980898     0.28500
H1807       H  0.59965913  0.70508860  0.64725742     0.19100
H1808       H  0.75865710  0.67510772  0.57349223     0.19100
C1809       C  0.67360131  0.56283115  0.65887262    -0.06700
C1810       C  0.38404793  0.57144912  0.64424210    -0.17900
C1811       C  0.39997662  0.57216962  0.61227918     0.10500
C1812       C  0.35552525  0.56344098  0.59079293    -0.06700
C1813       C  0.63222505  0.55638729  0.60619162    -0.17900
C1814       C  0.62070515  0.55587813  0.63830884     0.10500
S1815       S  0.47429730  0.58512629  0.60046308    -0.32900
S1816       S  0.53950573  0.54532730  0.65160653    -0.32900
H1817       H  0.57808377  0.53846219  0.67673036     0.28500
H1818       H  0.43217974  0.59165513  0.57592247     0.28500
H1819       H  0.41787864  0.57828910  0.66051363     0.19100
H1820       H  0.59092223  0.55082916  0.59102766     0.19100
C1821       C  0.67970697  0.61241699  0.74749018    -0.06700
C1822       C  0.63097977  0.62104247  0.72808501    -0.17900
C1823       C  0.63895148  0.63728658  0.72442836     0.10500
C1824       C  0.69579865  0.64534372  0.74108670    -0.06700
C1825       C  0.74397956  0.63686261  0.76073001    -0.17900
C1826       C  0.73660481  0.62059875  0.76421635     0.10500
S1827       S  0.57737293  0.64684680  0.69704346    -0.32900
S1828       S  0.79722801  0.61147868  0.79240058    -0.32900
H1829       H  0.82643656  0.60074148  0.77098427     0.28500
H1830       H  0.63193147  0.65728930  0.68574002     0.28500
H1831       H  0.58710460  0.61502168  0.71499461     0.19100
H1832       H  0.45086863  0.63947212  0.77027073     0.19100
C1833       C  0.55545759  0.98667030  0.96257155    -0.06700
C1834       C  0.59528396  0.99671878  0.98275335    -0.17900
C1835       C  0.57336775  0.01238686  0.98731860     0.10500
C1836       C  0.51157126  0.01866299  0.97044726    -0.06700
C1837       C  0.47187363  0.00861369  0.95006156    -0.17900
C1838       C  0.49344331  0.99285028  0.94569359     0.10500
S1839       S  0.62337206  0.02324195  0.01695328    -0.32900
S1840       S  0.44177967  0.98156054  0.91699652    -0.32900
H1841       H  0.50491796  0.97330642  0.90590228     0.28500
H1842       H  0.55810078  0.03035757  0.02897460     0.28500
H1843       H  0.64185439  0.99212634  0.99631645     0.19100
H1844       H  0.42512519  0.01319296  0.93660453     0.19100
C1845       C  0.65120697  0.89388423  0.96554651    -0.06700
C1846       C  0.60163648  0.88480453  0.98328633    -0.17900
C1847       C  0.61105864  0.86853766  0.98627881     0.10500
C1848       C  0.67038212  0.86085799  0.97049765    -0.06700
C1849       C  0.72009010  0.86999450  0.95280511    -0.17900
C1850       C  0.71065126  0.88628295  0.94989083     0.10500
S1851       S  0.54839996  0.85852833  0.01214321    -0.32900
S1852       S  0.77302953  0.89642594  0.92413685    -0.32900
H1853       H  0.71801756  0.90666756  0.91218825     0.28500
H1854       H  0.60678541  0.84988712  0.02606705     0.28500
H1855       H  0.55604048  0.89050936  0.99562599     0.19100
H1856       H  0.76548082  0.86434063  0.94026670     0.19100
C1857       C  0.50868160  0.76755818  0.72750151    -0.06700
C1858       C  0.45167099  0.76317742  0.74828713    -0.17900
C1859       C  0.42743881  0.74756213  0.75065782     0.10500
C1860       C  0.46036300  0.73582399  0.73165203    -0.06700
C1861       C  0.51713890  0.74017821  0.71079964    -0.17900
C1862       C  0.54122250  0.75580821  0.70836690     0.10500
S1863       S  0.35573576  0.74346825  0.77892694    -0.32900
S1864       S  0.60831718  0.76011947  0.67844423    -0.32900
H1865       H  0.66317876  0.76561517  0.69948640     0.28500
H1866       H  0.38934982  0.72955318  0.78970918     0.28500
H1867       H  0.42588737  0.77200465  0.76312624     0.19100
H1868       H  0.54222409  0.73134090  0.69577213     0.19100
C1869       C  0.62017219  0.81441807  0.81528387    -0.06700
C1870       C  0.67972947  0.80468302  0.82505159    -0.17900
C1871       C  0.70442598  0.80460856  0.85614499     0.10500
C1872       C  0.66866466  0.81441596  0.87807284    -0.06700
C1873       C  0.61043677  0.82438819  0.86824846    -0.17900
C1874       C  0.58681919  0.82473721  0.83718042     0.10500
S1875       S  0.77820428  0.79132148  0.86779493    -0.32900
S1876       S  0.51496258  0.83880260  0.82722989    -0.32900
H1877       H  0.55016798  0.84366998  0.79973495     0.28500
H1878       H  0.79359372  0.78512530  0.83804729     0.28500
H1879       H  0.70602645  0.79685752  0.80834943     0.19100
H1880       H  0.58304147  0.83203221  0.88503149     0.19100
C1881       C  0.66450111  0.94021084  0.80477620    -0.06700
C1882       C  0.60133781  0.93248260  0.81673441    -0.17900
C1883       C  0.58780177  0.93191844  0.84870297     0.10500
C1884       C  0.63709702  0.93976728  0.86969645    -0.06700
C1885       C  0.70061477  0.94747935  0.85758021    -0.17900
C1886       C  0.71440648  0.94790557  0.82550897     0.10500
S1887       S  0.50919268  0.92018760  0.86090183    -0.32900
S1888       S  0.45249539  0.96158405  0.81433427    -0.32900
H1889       H  0.41671645  0.96624048  0.78661438     0.28500
H1890       H  0.55131375  0.91220276  0.88366274     0.28500
H1891       H  0.56287315  0.92644434  0.80097415     0.19100
H1892       H  0.73931884  0.95354312  0.87313808     0.19100
C1893       C  0.60614488  0.85999514  0.72297192    -0.06700
C1894       C  0.55571105  0.86934333  0.70612222    -0.17900
C1895       C  0.56813806  0.88543024  0.70242454     0.10500
C1896       C  0.63138148  0.89269126  0.71651544    -0.06700
C1897       C  0.68090228  0.88331584  0.73411543    -0.17900
C1898       C  0.66841159  0.86717302  0.73785169     0.10500
S1899       S  0.50577661  0.89555077  0.67671072    -0.32900
S1900       S  0.73109622  0.85670027  0.76342321    -0.32900
H1901       H  0.67707792  0.84608515  0.77444203     0.28500
H1902       H  0.56678223  0.90219628  0.66088476     0.28500
H1903       H  0.50772071  0.86392845  0.69455269     0.19100
H1904       H  0.72904863  0.88865420  0.74567506     0.19100
C1905       C  0.59258776  0.68852880  0.32876528    -0.06700
C1906       C  0.53763990  0.69636485  0.34658085    -0.17900
C1907       C  0.53949761  0.69621095  0.37904251     0.10500
C1908       C  0.59671580  0.68778349  0.39437105    -0.06700
C1909       C  0.65171807  0.68000757  0.37686348    -0.17900
C1910       C  0.65077804  0.68032493  0.34446111     0.10500
S1911       S  0.46982550  0.70766755  0.39938197    -0.32900
S1912       S  0.72510826  0.66978893  0.32518787    -0.32900
H1913       H  0.74756078  0.68315768  0.30890045     0.28500
H1914       H  0.52008424  0.71371934  0.42190411     0.28500
H1915       H  0.49309109  0.70289462  0.33521552     0.19100
H1916       H  0.69646423  0.67368621  0.38861838     0.19100
C1917       C  0.39372399  0.56620503  0.33886491    -0.06700
C1918       C  0.33756987  0.55703002  0.35228873    -0.17900
C1919       C  0.33488806  0.55502703  0.38451755     0.10500
C1920       C  0.38874153  0.56267608  0.40400430    -0.06700
C1921       C  0.44297560  0.57235916  0.39041224    -0.17900
C1922       C  0.44557828  0.57431661  0.35823985     0.10500
S1923       S  0.26488677  0.54162190  0.39873880    -0.32900
S1924       S  0.51540159  0.58762083  0.34330576    -0.32900
H1925       H  0.47116486  0.59268594  0.31804586     0.28500
H1926       H  0.31429793  0.53471477  0.42019679     0.28500
H1927       H  0.29829140  0.55062897  0.33747584     0.19100
H1928       H  0.48299120  0.57869253  0.40498297     0.19100
C1929       C  0.36694724  0.48366938  0.25822758    -0.06700
C1930       C  0.31781061  0.49274346  0.24005574    -0.17900
C1931       C  0.32990979  0.50888916  0.23571596     0.10500
C1932       C  0.39234406  0.51630851  0.25040257    -0.06700
C1933       C  0.44131364  0.50722721  0.26857718    -0.17900
C1934       C  0.42948577  0.49109491  0.27275212     0.10500
S1935       S  0.26758220  0.51942720  0.20979416    -0.32900
S1936       S  0.49313823  0.48050904  0.29794317    -0.32900
H1937       H  0.54365838  0.49289648  0.30419445     0.28500
H1938       H  0.21461673  0.50732192  0.20510783     0.28500
H1939       H  0.27095355  0.48702227  0.22836449     0.19100
H1940       H  0.48852867  0.51289794  0.28009963     0.19100
C1941       C  0.46411142  0.60977681  0.24565670    -0.06700
C1942       C  0.52203545  0.61592588  0.26444404    -0.17900
C1943       C  0.53650508  0.63203810  0.26568125     0.10500
C1944       C  0.49322421  0.64237998  0.24733251    -0.06700
C1945       C  0.43311734  0.63642699  0.22960225    -0.17900
C1946       C  0.41883152  0.62023687  0.22810160     0.10500
S1947       S  0.61018922  0.63871908  0.29158633    -0.32900
S1948       S  0.34615904  0.61372559  0.20149159    -0.32900
H1949       H  0.38861549  0.60116631  0.18924566     0.28500
H1950       H  0.57506967  0.65307072  0.29910308     0.28500
H1951       H  0.55618998  0.60813380  0.27851867     0.19100
H1952       H  0.39982420  0.64431800  0.21541987     0.19100
C1953       C  0.43441216  0.69023571  0.82803752    -0.06700
C1954       C  0.38137951  0.68156308  0.84463480    -0.17900
C1955       C  0.38669099  0.68001431  0.87682291     0.10500
C1956       C  0.44532458  0.68758415  0.89342287    -0.06700
C1957       C  0.49801504  0.69650086  0.87674524    -0.17900
C1958       C  0.49279584  0.69803725  0.84435577     0.10500
S1959       S  0.32010261  0.66724991  0.89471902    -0.32900
S1960       S  0.55937423  0.71080487  0.82567757    -0.32900
H1961       H  0.51069230  0.71583623  0.80187445     0.28500
H1962       H  0.37555586  0.65979260  0.91285510     0.28500
H1963       H  0.33649151  0.67548074  0.83223027     0.19100
H1964       H  0.54271444  0.70264426  0.88911048     0.19100
C1965       C  0.40029694  0.76599071  0.97444459    -0.06700
C1966       C  0.38963381  0.75882073  0.00332197    -0.17900
C1967       C  0.41144847  0.74319745  0.00826871     0.10500
C1968       C  0.44137813  0.73422666  0.98347802    -0.06700
C1969       C  0.45325264  0.74144060  0.95476985    -0.17900
C1970       C  0.43302816  0.75716753  0.95001153     0.10500
S1971       S  0.40524737  0.73582389  0.04727451    -0.32900
S1972       S  0.88205160  0.76930891  0.94065743    -0.32900
H1973       H  0.83087419  0.77825607  0.92336617     0.28500
H1974       H  0.46282799  0.72457408  0.04451725     0.28500
H1975       H  0.36734884  0.76565986  0.02256993     0.19100
H1976       H  0.47595020  0.73461235  0.93558353     0.19100
C1977       C  0.50153383  0.68779979  0.07966849    -0.06700
C1978       C  0.44946353  0.67970890  0.09809553    -0.17900
C1979       C  0.46128318  0.67790222  0.13007476     0.10500
C1980       C  0.52546005  0.68467964  0.14424961    -0.06700
C1981       C  0.57735374  0.69271176  0.12612401    -0.17900
C1982       C  0.56617346  0.69447344  0.09416649     0.10500
S1983       S  0.39516565  0.66605491  0.15112176    -0.32900
S1984       S  0.63330229  0.70608962  0.07321009    -0.32900
H1985       H  0.68328011  0.70932903  0.09796919     0.28500
H1986       H  0.44842694  0.66010552  0.17228526     0.28500
H1987       H  0.40039177  0.67428775  0.08739952     0.19100
H1988       H  0.62578820  0.69807621  0.13739833     0.19100
C1989       C  0.60289395  0.56698525  0.84373532    -0.06700
C1990       C  0.54369798  0.55768660  0.85462506    -0.17900
C1991       C  0.53253259  0.55552390  0.88651617     0.10500
C1992       C  0.58177412  0.56281148  0.90837764    -0.06700
C1993       C  0.64063566  0.57222547  0.89731698    -0.17900
C1994       C  0.65113391  0.57450293  0.86545173     0.10500
S1995       S  0.45804696  0.54240095  0.89754604    -0.32900
S1996       S  0.72499892  0.58767894  0.85405528    -0.32900
H1997       H  0.68515403  0.59367484  0.82838949     0.28500
H1998       H  0.41528085  0.55454373  0.91104390     0.28500
H1999       H  0.50705850  0.55167504  0.83811338     0.19100
H2000       H  0.67810938  0.57813999  0.91363349     0.19100
C2001       C  0.52380281  0.56067567  0.09384883    -0.06700
C2002       C  0.47905506  0.54855818  0.10574010    -0.17900
C2003       C  0.45650835  0.54855714  0.13678609     0.10500
C2004       C  0.47919077  0.56096359  0.15659953    -0.06700
C2005       C  0.52601654  0.57284265  0.14520146    -0.17900
C2006       C  0.54849650  0.57284363  0.11407050     0.10500
S2007       S  0.39904831  0.53242465  0.14957498    -0.32900
S2008       S  0.60342692  0.58926553  0.10116082    -0.32900
H2009       H  0.66277869  0.57984498  0.09034857     0.28500
H2010       H  0.42859094  0.53187515  0.17995036     0.28500
H2011       H  0.46149702  0.53902715  0.09074143     0.19100
H2012       H  0.54445265  0.58226789  0.16058705     0.19100
C2013       C  0.51085542  0.60717471  0.99759298    -0.06700
C2014       C  0.56291888  0.61587479  0.98051502    -0.17900
C2015       C  0.55416113  0.63198233  0.97605148     0.10500
C2016       C  0.49336353  0.64006877  0.98982449    -0.06700
C2017       C  0.44047499  0.63132624  0.00679175    -0.17900
C2018       C  0.44872414  0.61502525  0.01094068     0.10500
S2019       S  0.61942045  0.64115349  0.95039306    -0.32900
S2020       S  0.38089806  0.60517800  0.03489883    -0.32900
H2021       H  0.43300552  0.59494760  0.04892274     0.28500
H2022       H  0.56265905  0.64968165  0.93505253     0.28500
H2023       H  0.61001374  0.60995144  0.96959773     0.19100
H2024       H  0.39358651  0.63728884  0.01771868     0.19100
C2025       C  0.63302883  0.18774592  0.82313322    -0.06700
C2026       C  0.69311214  0.19629357  0.83601604    -0.17900
C2027       C  0.70004772  0.19844561  0.86831756     0.10500
C2028       C  0.31096761  0.19160557  0.88943260    -0.06700
C2029       C  0.25277988  0.18271745  0.87574985    -0.17900
C2030       C  0.24604303  0.18114930  0.84352092     0.10500
S2031       S  0.77557834  0.21073888  0.88314507    -0.32900
S2032       S  0.17167555  0.16863781  0.82874424    -0.32900
H2033       H  0.21274594  0.16281013  0.80325549     0.28500
H2034       H  0.81446731  0.21237994  0.85495683     0.28500
H2035       H  0.73281562  0.20185585  0.82059194     0.19100
H2036       H  0.21301097  0.17656674  0.89026993     0.19100
C2037       C  0.48801003  0.06795604  0.88137888    -0.06700
C2038       C  0.54684361  0.05945858  0.86805381    -0.17900
C2039       C  0.55111747  0.05733055  0.83587971     0.10500
C2040       C  0.49663336  0.06425348  0.81593864    -0.06700
C2041       C  0.43920792  0.07331900  0.82945451    -0.17900
C2042       C  0.43452952  0.07529790  0.86178725     0.10500
S2043       S  0.62324029  0.04429090  0.82251863    -0.32900
S2044       S  0.36030075  0.08768555  0.87656580    -0.32900
H2045       H  0.40133369  0.09331053  0.90248065     0.28500
H2046       H  0.57141234  0.03537588  0.80482912     0.28500
H2047       H  0.58738021  0.05359990  0.88295016     0.19100
H2048       H  0.39795321  0.07906498  0.81476122     0.19100
C2049       C  0.46341749  0.01611913  0.72057313    -0.06700
C2050       C  0.50208965  0.00587235  0.70055265    -0.17900
C2051       C  0.47768804  0.99029320  0.69601027     0.10500
C2052       C  0.41455922  0.98465984  0.71255142    -0.06700
C2053       C  0.37661493  0.99488392  0.73263620    -0.17900
C2054       C  0.40098005  0.01033954  0.73713682     0.10500
S2055       S  0.52591187  0.97861822  0.66714093    -0.32900
S2056       S  0.35207020  0.02184006  0.76569768    -0.32900
H2057       H  0.41616190  0.03002716  0.77641752     0.28500
H2058       H  0.46223261  0.97000092  0.65745154     0.28500
H2059       H  0.54914719  0.01022709  0.68723940     0.19100
H2060       H  0.32933333  0.99061546  0.74594519     0.19100
C2061       C  0.54423872  0.10927682  0.72658603    -0.06700
C2062       C  0.49212220  0.11900243  0.71114063    -0.17900
C2063       C  0.49811162  0.13540329  0.71226787     0.10500
C2064       C  0.55653044  0.14241995  0.72984892    -0.06700
C2065       C  0.60835544  0.13276276  0.74547713    -0.17900
C2066       C  0.60223594  0.11635854  0.74449320     0.10500
S2067       S  0.43283302  0.14659591  0.68904014    -0.32900
S2068       S  0.66756389  0.10531454  0.76795163    -0.32900
H2069       H  0.61264857  0.09504880  0.77963517     0.28500
H2070       H  0.48639181  0.15751001  0.67869136     0.28500
H2071       H  0.44724877  0.11378096  0.69730669     0.19100
H2072       H  0.65346222  0.13807887  0.75905479     0.19100
C2073       C  0.60363848  0.06283287  0.31093058    -0.06700
C2074       C  0.54321800  0.05493180  0.32445240    -0.17900
C2075       C  0.53620217  0.05412279  0.35684795     0.10500
C2076       C  0.58949165  0.06188691  0.37641648    -0.06700
C2077       C  0.64917342  0.07001785  0.36266443    -0.17900
C2078       C  0.65632350  0.07071451  0.33035147     0.10500
S2079       S  0.46115903  0.04203433  0.37140936    -0.32900
S2080       S  0.73201640  0.08248302  0.31530524    -0.32900
H2081       H  0.69043121  0.08810849  0.28978962     0.28500
H2082       H  0.50647699  0.03463266  0.39391745     0.28500
H2083       H  0.50323316  0.04868436  0.30970508     0.19100
H2084       H  0.68981941  0.07621994  0.37716733     0.19100
C2085       C  0.54990293  0.06344036  0.56319219    -0.06700
C2086       C  0.60007138  0.05469225  0.58139018    -0.17900
C2087       C  0.59118247  0.05356388  0.61375483     0.10500
C2088       C  0.53129473  0.06170665  0.62852291    -0.06700
C2089       C  0.48090479  0.07037632  0.61013823    -0.17900
C2090       C  0.49009019  0.07148381  0.57789089     0.10500
S2091       S  0.65395173  0.04083146  0.63528925    -0.32900
S2092       S  0.42662015  0.08419642  0.55708327    -0.32900
H2093       H  0.48153720  0.08967727  0.53647280     0.28500
H2094       H  0.70215248  0.03695022  0.61056361     0.28500
H2095       H  0.64510510  0.04835641  0.57000011     0.19100
H2096       H  0.43539483  0.07679715  0.62107977     0.19100
C2097       C  0.46434557  0.19038387  0.39042230    -0.06700
C2098       C  0.52018076  0.18213415  0.37409093    -0.17900
C2099       C  0.51839577  0.18086239  0.34168599     0.10500
C2100       C  0.46026302  0.18834767  0.32480035    -0.06700
C2101       C  0.40535525  0.19692691  0.34130377    -0.17900
C2102       C  0.40689547  0.19806730  0.37376767     0.10500
S2103       S  0.58886740  0.16863446  0.32388061    -0.32900
S2104       S  0.33619349  0.21004049  0.39234007    -0.32900
H2105       H  0.38375294  0.21590588  0.41604402     0.28500
H2106       H  0.53685715  0.16120023  0.30407640     0.28500
H2107       H  0.56445218  0.17615367  0.38681154     0.19100
H2108       H  0.36102823  0.20298850  0.32880338     0.19100
C2109       C  0.44547011  0.23555324  0.49277739    -0.06700
C2110       C  0.49056383  0.24622746  0.47671654    -0.17900
C2111       C  0.47320072  0.26228501  0.47615579     0.10500
C2112       C  0.41065226  0.26812166  0.49301878    -0.06700
C2113       C  0.36624873  0.25745270  0.50948901    -0.17900
C2114       C  0.38333944  0.24137776  0.50992208     0.10500
S2115       S  0.52949154  0.27433265  0.45122666    -0.32900
S2116       S  0.32553491  0.22913313  0.53410069    -0.32900
H2117       H  0.38568777  0.21981773  0.54468113     0.28500
H2118       H  0.46758869  0.28278515  0.43953967     0.28500
H2119       H  0.53759871  0.24193178  0.46315507     0.19100
H2120       H  0.31885466  0.26171666  0.52286942     0.19100
C2121       C  0.51404727  0.18605107  0.57549571    -0.06700
C2122       C  0.46713495  0.19462825  0.59529115    -0.17900
C2123       C  0.48509336  0.19656624  0.62678920     0.10500
C2124       C  0.55039951  0.18924197  0.63931815    -0.06700
C2125       C  0.59597143  0.18027306  0.61945336    -0.17900
C2126       C  0.57806176  0.17846636  0.58794942     0.10500
S2127       S  0.42513479  0.20956430  0.64868719    -0.32900
S2128       S  0.63730706  0.16571908  0.56517918    -0.32900
H2129       H  0.57959515  0.16026361  0.54527333     0.28500
H2130       H  0.48588252  0.21695475  0.66368287     0.28500
H2131       H  0.41842076  0.20062385  0.58582476     0.19100
H2132       H  0.64496547  0.17425611  0.62863545     0.19100
C2133       C  0.51351516  0.14213844  0.47630738    -0.06700
C2134       C  0.57240172  0.13619056  0.45808642    -0.17900
C2135       C  0.58206740  0.11997429  0.45370582     0.10500
C2136       C  0.53269092  0.10933306  0.46833514    -0.06700
C2137       C  0.47253887  0.11525447  0.48568645    -0.17900
C2138       C  0.46332703  0.13141475  0.49040164     0.10500
S2139       S  0.65605554  0.11366312  0.42794144    -0.32900
S2140       S  0.38964641  0.13735765  0.51654432    -0.32900
H2141       H  0.43406733  0.14871908  0.53206404     0.28500
H2142       H  0.61684896  0.10053718  0.41593991     0.28500
H2143       H  0.61026263  0.14422883  0.44658778     0.19100
H2144       H  0.43428573  0.10721438  0.49692763     0.19100
C2145       C  0.53799106  0.31356717  0.09179413    -0.06700
C2146       C  0.59427012  0.32253608  0.10664810    -0.17900
C2147       C  0.60051447  0.32305055  0.13919114     0.10500
C2148       C  0.54920745  0.31444889  0.15733472    -0.06700
C2149       C  0.49234259  0.30570523  0.14267717    -0.17900
C2150       C  0.48693641  0.30489705  0.11026568     0.10500
S2151       S  0.67140800  0.33541034  0.15736093    -0.32900
S2152       S  0.41612623  0.29185876  0.09431795    -0.32900
H2153       H  0.46395187  0.28527103  0.07171035     0.28500
H2154       H  0.70800897  0.33983048  0.12987332     0.28500
H2155       H  0.63259974  0.32937446  0.09272921     0.19100
H2156       H  0.45373831  0.29889557  0.15658881     0.19100
C2157       C  0.61511663  0.23751038  0.98859807    -0.06700
C2158       C  0.55819042  0.24316782  0.96877399    -0.17900
C2159       C  0.53171973  0.25866225  0.97119992     0.10500
C2160       C  0.56298783  0.26893850  0.99377473    -0.06700
C2161       C  0.61984809  0.26329277  0.01365707    -0.17900
C2162       C  0.64608701  0.24776089  0.01139641     0.10500
S2163       S  0.46126897  0.26493827  0.94373289    -0.32900
S2164       S  0.38960461  0.24192757  0.03358961    -0.32900
H2165       H  0.43447681  0.23743433  0.00830038     0.28500
H2166       H  0.41040546  0.26964840  0.96690702     0.28500
H2167       H  0.53365624  0.23538671  0.95133009     0.19100
H2168       H  0.64434461  0.27110195  0.03106172     0.19100
C2169       C  0.35281219  0.43972853  0.09890778    -0.06700
C2170       C  0.40548045  0.44824335  0.11712530    -0.17900
C2171       C  0.40510026  0.44778873  0.14968083     0.10500
C2172       C  0.35213394  0.43827065  0.16489792    -0.06700
C2173       C  0.29916141  0.42985779  0.14699131    -0.17900
C2174       C  0.29855555  0.43050781  0.11444456     0.10500
S2175       S  0.47115693  0.46022058  0.17037077    -0.32900
S2176       S  0.55251250  0.41702897  0.09726014    -0.32900
H2177       H  0.52099024  0.42949242  0.08070049     0.28500
H2178       H  0.42046611  0.46483130  0.19372271     0.28500
H2179       H  0.44718779  0.45552597  0.10595668     0.19100
H2180       H  0.57962405  0.42303574  0.16068254     0.19100
C2181       C  0.60725609  0.51469115  0.00323321    -0.06700
C2182       C  0.56776627  0.50422039  0.98367062    -0.17900
C2183       C  0.58800549  0.48831436  0.98157347     0.10500
C2184       C  0.30953609  0.48471822  0.00025864    -0.06700
C2185       C  0.68701257  0.49295412  0.01961792    -0.17900
C2186       C  0.66726089  0.50881790  0.02158173     0.10500
S2187       S  0.19500649  0.47618228  0.95708321    -0.32900
S2188       S  0.71763957  0.52054984  0.04974284    -0.32900
H2189       H  0.65252992  0.52827040  0.06037655     0.28500
H2190       H  0.26093327  0.46911255  0.94567150     0.28500
H2191       H  0.52275557  0.50857375  0.96894916     0.19100
H2192       H  0.73217871  0.48863931  0.03431515     0.19100
C2193       C  0.44989578  0.39466829  0.01062032    -0.06700
C2194       C  0.50710830  0.38932188  0.99094407    -0.17900
C2195       C  0.52076755  0.37318680  0.98682982     0.10500
C2196       C  0.47760093  0.36204137  0.00344789    -0.06700
C2197       C  0.42149584  0.36750346  0.02359369    -0.17900
C2198       C  0.40781500  0.38358963  0.02755046     0.10500
S2199       S  0.59041543  0.36771667  0.95846937    -0.32900
S2200       S  0.33693371  0.38927592  0.05517720    -0.32900
H2201       H  0.37308375  0.40328557  0.06455779     0.28500
H2202       H  0.54867975  0.35503391  0.94609602     0.28500
H2203       H  0.53862601  0.39772051  0.97738827     0.19100
H2204       H  0.38885568  0.35918198  0.03688212     0.19100
C2205       C  0.37835621  0.31452738  0.59059741    -0.06700
C2206       C  0.43686101  0.32300054  0.60509026    -0.17900
C2207       C  0.44194068  0.32425537  0.63763630     0.10500
C2208       C  0.38675279  0.31702909  0.65629566    -0.06700
C2209       C  0.32780400  0.30875531  0.64193427    -0.17900
C2210       C  0.32390075  0.30708690  0.60954450     0.10500
S2211       S  0.51719978  0.33575645  0.65497176    -0.32900
S2212       S  0.25081095  0.29438707  0.59434697    -0.32900
H2213       H  0.29819698  0.28666055  0.57299839     0.28500
H2214       H  0.55929472  0.33769816  0.62767074     0.28500
H2215       H  0.47801654  0.32889302  0.59085848     0.19100
H2216       H  0.28657885  0.30282837  0.65614029     0.19100
C2217       C  0.35983316  0.26853153  0.74366954    -0.06700
C2218       C  0.29128431  0.26484859  0.72867145    -0.17900
C2219       C  0.26696218  0.24921245  0.72493411     0.10500
C2220       C  0.31125735  0.23693623  0.73702503    -0.06700
C2221       C  0.37945158  0.24061717  0.75219673    -0.17900
C2222       C  0.40409020  0.25622477  0.75573281     0.10500
S2223       S  0.18266084  0.24504417  0.70273507    -0.32900
S2224       S  0.48977079  0.26022412  0.77709771    -0.32900
H2225       H  0.51215438  0.24449615  0.78112787     0.28500
H2226       H  0.16043126  0.26074827  0.69825309     0.28500
H2227       H  0.25751951  0.27428238  0.71918145     0.19100
H2228       H  0.41319081  0.23116837  0.76165269     0.19100
C2229       C  0.44984541  0.31358201  0.84192737    -0.06700
C2230       C  0.40443192  0.32284643  0.86138742    -0.17900
C2231       C  0.42125234  0.32470955  0.89308402     0.10500
C2232       C  0.48454111  0.31700179  0.90604838    -0.06700
C2233       C  0.53077076  0.30800180  0.88667130    -0.17900
C2234       C  0.51347101  0.30593521  0.85511006     0.10500
S2235       S  0.36117649  0.33754369  0.91547255    -0.32900
S2236       S  0.57152114  0.29229999  0.83384567    -0.32900
H2237       H  0.50953825  0.28533361  0.81878329     0.28500
H2238       H  0.41818218  0.34305564  0.93563868     0.28500
H2239       H  0.35650604  0.32904370  0.85172062     0.19100
H2240       H  0.57835759  0.30176963  0.89656585     0.19100
C2241       C  0.52823741  0.44161929  0.66769236    -0.06700
C2242       C  0.47180525  0.43376386  0.65061468    -0.17900
C2243       C  0.47176365  0.43334684  0.61805678     0.10500
C2244       C  0.53002042  0.44104314  0.60171693    -0.06700
C2245       C  0.58523202  0.44930060  0.61907054    -0.17900
C2246       C  0.58441454  0.44984231  0.65160719     0.10500
S2247       S  0.39559075  0.42267359  0.59970619    -0.32900
S2248       S  0.65364490  0.46202713  0.67102113    -0.32900
H2249       H  0.60492776  0.46759943  0.69430247     0.28500
H2250       H  0.43922739  0.41540601  0.57695968     0.28500
H2251       H  0.42761262  0.42763396  0.66283883     0.19100
H2252       H  0.62923505  0.45564636  0.60718993     0.19100
C2253       C  0.55642001  0.48711799  0.76263010    -0.06700
C2254       C  0.51099392  0.49666367  0.74394862    -0.17900
C2255       C  0.52637093  0.51263533  0.74031676     0.10500
C2256       C  0.58949277  0.51951917  0.75555579    -0.06700
C2257       C  0.63485386  0.50996010  0.77444797    -0.17900
C2258       C  0.61876459  0.49392447  0.77842797     0.10500
S2259       S  0.46474611  0.52317110  0.71458691    -0.32900
S2260       S  0.67567204  0.48268993  0.80521701    -0.32900
H2261       H  0.73174867  0.49411794  0.81037314     0.28500
H2262       H  0.44128544  0.53331885  0.73839322     0.28500
H2263       H  0.46350735  0.49157519  0.73149697     0.19100
H2264       H  0.68216019  0.51517766  0.78672986     0.19100
C2265       C  0.48509102  0.44004569  0.85336846    -0.06700
C2266       C  0.47736162  0.42554228  0.86830281    -0.17900
C2267       C  0.44940571  0.42473337  0.89869014     0.10500
C2268       C  0.42877680  0.43873131  0.91444028    -0.06700
C2269       C  0.43841077  0.45320597  0.89969660    -0.17900
C2270       C  0.46673373  0.45402691  0.86953592     0.10500
S2271       S  0.44338669  0.40559859  0.91625822    -0.32900
S2272       S  0.47850180  0.47327354  0.85296734    -0.32900
H2273       H  0.53697645  0.46898677  0.83282782     0.28500
H2274       H  0.38002729  0.40882715  0.93452952     0.28500
H2275       H  0.49051565  0.41475899  0.85582173     0.19100
H2276       H  0.42395185  0.46399194  0.91187223     0.19100
C2277       C  0.47480057  0.39413069  0.75490997    -0.06700
C2278       C  0.41580198  0.38757020  0.77183890    -0.17900
C2279       C  0.40386792  0.37127354  0.77211556     0.10500
C2280       C  0.45196191  0.36123667  0.75472916    -0.06700
C2281       C  0.51137347  0.36783266  0.73799690    -0.17900
C2282       C  0.52251669  0.38411931  0.73746040     0.10500
S2283       S  0.32986967  0.36356274  0.79637518    -0.32900
S2284       S  0.59574177  0.39139910  0.71256331    -0.32900
H2285       H  0.55525196  0.40468736  0.70265649     0.28500
H2286       H  0.29676819  0.37806728  0.80436246     0.28500
H2287       H  0.38024309  0.39524702  0.78559145     0.19100
H2288       H  0.54776199  0.36029510  0.72427461     0.19100
C2289       C  0.39052738  0.81230367  0.06450424    -0.06700
C2290       C  0.40211957  0.79754651  0.07802860    -0.17900
C2291       C  0.39717637  0.79559632  0.11026751     0.10500
C2292       C  0.37999387  0.80866819  0.12946139    -0.06700
C2293       C  0.36823138  0.82340992  0.11591768    -0.17900
C2294       C  0.37440573  0.82540841  0.08374346     0.10500
S2295       S  0.41081753  0.77607571  0.12546503    -0.32900
S2296       S  0.57895982  0.82484640  0.06919498    -0.32900
H2297       H  0.54111465  0.82598806  0.09774651     0.28500
H2298       H  0.36266951  0.77794865  0.15106772     0.28500
H2299       H  0.41278182  0.78738419  0.06328548     0.19100
H2300       H  0.35742640  0.83357359  0.13064924     0.19100
C2301       C  0.63831281  0.73118942  0.22675777    -0.06700
C2302       C  0.70674310  0.73493917  0.24168764    -0.17900
C2303       C  0.73761160  0.75014137  0.24034731     0.10500
C2304       C  0.69920824  0.76193520  0.22369124    -0.06700
C2305       C  0.63197232  0.75801878  0.20798293    -0.17900
C2306       C  0.60154982  0.74286010  0.20914037     0.10500
S2307       S  0.44586591  0.75683620  0.27235483    -0.32900
S2308       S  0.51965879  0.73882330  0.18548997    -0.32900
H2309       H  0.47500946  0.73464076  0.21080702     0.28500
H2310       H  0.41108631  0.77084248  0.28242510     0.28500
H2311       H  0.73531851  0.72596068  0.25499478     0.19100
H2312       H  0.60262847  0.76689742  0.19462756     0.19100
C2313       C  0.56877681  0.93309154  0.12095291    -0.06700
C2314       C  0.62799748  0.94243147  0.11012668    -0.17900
C2315       C  0.63786063  0.94503382  0.07805992     0.10500
C2316       C  0.58722215  0.93807494  0.05625018    -0.06700
C2317       C  0.52967018  0.92838067  0.06726726    -0.17900
C2318       C  0.52058216  0.92571672  0.09900397     0.10500
S2319       S  0.71167548  0.95818589  0.06586893    -0.32900
S2320       S  0.44816891  0.91218708  0.10991904    -0.32900
H2321       H  0.49257362  0.90534691  0.13342924     0.28500
H2322       H  0.75013756  0.95892893  0.09457821     0.28500
H2323       H  0.66437785  0.94828466  0.12691067     0.19100
H2324       H  0.49185922  0.92255436  0.05095514     0.19100
C2325       C  0.56705039  0.98064568  0.21560840    -0.06700
C2326       C  0.51655237  0.99097686  0.20102750    -0.17900
C2327       C  0.52922802  0.00723186  0.20022763     0.10500
C2328       C  0.59436025  0.01371266  0.21480247    -0.06700
C2329       C  0.64501949  0.00340075  0.22922852    -0.17900
C2330       C  0.63218817  0.98716866  0.23025020     0.10500
S2331       S  0.45995147  0.01854530  0.17932595    -0.32900
S2332       S  0.70182186  0.97613110  0.25156620    -0.32900
H2333       H  0.65381059  0.96482607  0.26344372     0.28500
H2334       H  0.51060868  0.02913537  0.16650897     0.28500
H2335       H  0.46684835  0.98632053  0.18944882     0.19100
H2336       H  0.69479673  0.00808362  0.24072025     0.19100
C2337       C  0.45671816  0.85415854  0.21686820    -0.06700
C2338       C  0.40361860  0.86365995  0.20171196    -0.17900
C2339       C  0.41317959  0.87992273  0.19923117     0.10500
C2340       C  0.47823003  0.88717789  0.21223658    -0.06700
C2341       C  0.53150333  0.87753536  0.22740131    -0.17900
C2342       C  0.52065138  0.86128682  0.23044964     0.10500
S2343       S  0.33910216  0.89029003  0.17930295    -0.32900
S2344       S  0.58646065  0.85066093  0.25440145    -0.32900
H2345       H  0.53253919  0.84077388  0.26791170     0.28500
H2346       H  0.38703939  0.90006107  0.16283698     0.28500
H2347       H  0.35366402  0.85831355  0.19155611     0.19100
H2348       H  0.58086449  0.88276156  0.23822543     0.19100
C2349       C  0.49076104  0.81459058  0.56806981    -0.06700
C2350       C  0.54855344  0.82379992  0.58121469    -0.17900
C2351       C  0.56022658  0.82458343  0.61336816     0.10500
C2352       C  0.51335597  0.81590639  0.63332980    -0.06700
C2353       C  0.45360546  0.80720410  0.62055470    -0.17900
C2354       C  0.44162369  0.80644361  0.58829746     0.10500
S2355       S  0.63533608  0.83708667  0.62745358    -0.32900
S2356       S  0.36693492  0.79375349  0.57479787    -0.32900
H2357       H  0.32940898  0.80566887  0.55858156     0.28500
H2358       H  0.59733795  0.84209304  0.65436662     0.28500
H2359       H  0.58535790  0.83047897  0.56627898     0.19100
H2360       H  0.41756068  0.80048781  0.63574824     0.19100
C2361       C  0.52385414  0.76622161  0.47756030    -0.06700
C2362       C  0.58408439  0.76074111  0.45940959    -0.17900
C2363       C  0.61143514  0.74536072  0.46213184     0.10500
C2364       C  0.57801598  0.73499843  0.48352646    -0.06700
C2365       C  0.51779458  0.74049884  0.50166541    -0.17900
C2366       C  0.49023033  0.75584107  0.49883479     0.10500
S2367       S  0.68563154  0.73947735  0.43628388    -0.32900
S2368       S  0.41558456  0.76163925  0.52451803    -0.32900
H2369       H  0.36776326  0.76657861  0.50045430     0.28500
H2370       H  0.73497232  0.73539696  0.46054559     0.28500
H2371       H  0.61060035  0.76858074  0.44302147     0.19100
H2372       H  0.49124073  0.73269597  0.51810850     0.19100
C2373       C  0.43670892  0.80983334  0.31544502    -0.06700
C2374       C  0.38455775  0.81798564  0.33395648    -0.17900
C2375       C  0.39442431  0.81947846  0.36617208     0.10500
C2376       C  0.45674075  0.81230742  0.38088570    -0.06700
C2377       C  0.51048405  0.80469887  0.36252757    -0.17900
C2378       C  0.50139625  0.80330151  0.33022054     0.10500
S2379       S  0.32792495  0.83152725  0.38687508    -0.32900
S2380       S  0.57462773  0.79276231  0.31007671    -0.32900
H2381       H  0.52566269  0.78376163  0.29163547     0.28500
H2382       H  0.38102581  0.83796734  0.40779732     0.28500
H2383       H  0.33632799  0.82358859  0.32319879     0.19100
H2384       H  0.55893981  0.79932244  0.37358116     0.19100
C2385       C  0.35859602  0.93935381  0.55266577    -0.06700
C2386       C  0.41727624  0.93175455  0.56846259    -0.17900
C2387       C  0.42122340  0.93146916  0.60098030     0.10500
C2388       C  0.36393464  0.93869886  0.61873755    -0.06700
C2389       C  0.30559693  0.94657523  0.60268232    -0.17900
C2390       C  0.30259255  0.94707141  0.57006105     0.10500
S2391       S  0.50014804  0.92177989  0.61871972    -0.32900
S2392       S  0.22863213  0.95844161  0.55227299    -0.32900
H2393       H  0.27279180  0.96424527  0.52789882     0.28500
H2394       H  0.53852829  0.91749193  0.59141793     0.28500
H2395       H  0.46079925  0.92599983  0.55501910     0.19100
H2396       H  0.26210984  0.95264011  0.61562453     0.19100
C2397       C  0.33481348  0.98493181  0.45825331    -0.06700
C2398       C  0.37858609  0.99471347  0.47766600    -0.17900
C2399       C  0.68051256  0.00995252  0.48460500     0.10500
C2400       C  0.61811068  0.01643512  0.46860736    -0.06700
C2401       C  0.57696744  0.00683687  0.44791199    -0.17900
C2402       C  0.59804727  0.99120956  0.44213339     0.10500
S2403       S  0.73317158  0.02062632  0.51398431    -0.32900
S2404       S  0.54534394  0.98055022  0.41280539    -0.32900
H2405       H  0.27443352  0.97265481  0.40221482     0.28500
H2406       H  0.67049560  0.02877258  0.52576716     0.28500
H2407       H  0.42721103  0.98993355  0.48965038     0.19100
H2408       H  0.52990818  0.01173668  0.43508346     0.19100
C2409       C  0.41789231  0.93641016  0.36694798    -0.06700
C2410       C  0.48185125  0.94465560  0.35701976    -0.17900
C2411       C  0.50382347  0.94471202  0.32593314     0.10500
C2412       C  0.46286096  0.93599891  0.30352508    -0.06700
C2413       C  0.39792386  0.92792048  0.31306471    -0.17900
C2414       C  0.37567694  0.92782629  0.34446034     0.10500
S2415       S  0.58100051  0.95723167  0.31611311    -0.32900
S2416       S  0.29595130  0.91585698  0.35436159    -0.32900
H2417       H  0.33059434  0.90927961  0.38075289     0.28500
H2418       H  0.54243367  0.96363567  0.29045989     0.28500
H2419       H  0.51479851  0.95146954  0.37358758     0.19100
H2420       H  0.36551955  0.92122839  0.29607862     0.19100
C2421       C  0.41564810  0.89203598  0.46755751    -0.06700
C2422       C  0.47779086  0.88524887  0.45287428    -0.17900
C2423       C  0.48900783  0.86899052  0.45296034     0.10500
C2424       C  0.43838185  0.85913384  0.46911627    -0.06700
C2425       C  0.37610801  0.86595367  0.48388127    -0.17900
C2426       C  0.36473860  0.88225692  0.48363234     0.10500
S2427       S  0.56637147  0.86163579  0.43019991    -0.32900
S2428       S  0.28689261  0.88988560  0.50583427    -0.32900
H2429       H  0.32509628  0.90341492  0.51649983     0.28500
H2430       H  0.52524251  0.84898487  0.41729658     0.28500
H2431       H  0.51644220  0.89262068  0.44013280     0.19100
H2432       H  0.33729925  0.85860289  0.49657000     0.19100
O2433       O  0.66731387  0.93432561  0.41208651    -0.72400
O2434       O  0.63562052  0.93743232  0.49998217    -0.72600
O2435       O  0.62910648  0.95758388  0.45235047    -0.72500
O2436       O  0.67111604  0.91415197  0.46021949    -0.72500
O2437       O  0.79039425  0.91926665  0.46507606    -0.72400
O2438       O  0.74652319  0.96307952  0.46136208    -0.72500
O2439       O  0.75541736  0.94166142  0.50618408    -0.72400
O2440       O  0.78418829  0.94060559  0.41990893    -0.72600
V2441       V  0.65293545  0.93598211  0.45617320     1.35200
V2442       V  0.76671809  0.94108258  0.46288792     1.35200
C2443       C  0.73219273  0.93692151  0.40113980     0.76800
C2444       C  0.69149525  0.93974464  0.51792655     0.76900
C2445       C  0.67984930  0.96778468  0.45655360     0.76800
C2446       C  0.73748154  0.90929473  0.46436191     0.76700
O2447       O  0.86795316  0.81372735  0.42941024    -0.72400
O2448       O  0.88471341  0.81679698  0.51779337    -0.72600
O2449       O  0.89667033  0.79339903  0.47553365    -0.72500
O2450       O  0.85821059  0.83706954  0.47141867    -0.72500
O2451       O  0.73847782  0.83282177  0.47608703    -0.72400
O2452       O  0.77713285  0.78868021  0.47928991    -0.72500
O2453       O  0.76551807  0.81195678  0.52153667    -0.72400
O2454       O  0.74791970  0.80965001  0.43377926    -0.72600
V2455       V  0.87457577  0.81514127  0.47364938     1.35200
V2456       V  0.75957839  0.81083535  0.47759924     1.35200
C2457       C  0.80435033  0.81160720  0.41657767     0.76800
C2458       C  0.82757936  0.81478891  0.53480160     0.76900
C2459       C  0.84399597  0.78356192  0.47827630     0.76800
C2460       C  0.79214126  0.84243665  0.47246959     0.76700
O2461       O  0.88361251  0.93322461  0.26242823    -0.72400
O2462       O  0.92965521  0.93157700  0.17551218    -0.72600
O2463       O  0.92758099  0.95409513  0.21943414    -0.72500
O2464       O  0.88941086  0.91041087  0.21875227    -0.72500
O2465       O  0.77224767  0.91442666  0.20709282    -0.72400
O2466       O  0.81054425  0.95879070  0.20906947    -0.72500
O2467       O  0.81184514  0.93605345  0.16511541    -0.72400
O2468       O  0.76610424  0.93708962  0.25063871    -0.72600
V2469       V  0.90526928  0.93237811  0.21881516     1.35200
V2470       V  0.79250046  0.93654083  0.20815825     1.35200
C2471       C  0.81624022  0.93534325  0.27115409     0.76800
C2472       C  0.87767879  0.93364018  0.15559043     0.76900
C2473       C  0.87614448  0.96401209  0.21510343     0.76800
C2474       C  0.82502852  0.90482744  0.21292649     0.76700
O2475       O  0.70669079  0.81094552  0.26929013    -0.72400
O2476       O  0.68861553  0.81040595  0.18063199    -0.72600
O2477       O  0.67254821  0.78911772  0.22567909    -0.72500
O2478       O  0.71877727  0.83229081  0.22375790    -0.72500
O2479       O  0.83795443  0.82715695  0.22031192    -0.72400
O2480       O  0.79079366  0.78308453  0.22197709    -0.72500
O2481       O  0.80725762  0.80499571  0.17728014    -0.72400
O2482       O  0.82502282  0.80536219  0.26494009    -0.72600
V2483       V  0.69902462  0.81056266  0.22484267     1.35200
V2484       V  0.81300933  0.80521302  0.22122965     1.35200
C2485       C  0.76962353  0.80815536  0.28226257     0.76800
C2486       C  0.74570058  0.80783502  0.16375446     0.76900
C2487       C  0.72270092  0.77868760  0.22393882     0.76800
C2488       C  0.78523306  0.83721076  0.22140786     0.76700
O2489       O  0.86520295  0.43528260  0.80695186    -0.72400
O2490       O  0.89381488  0.43825722  0.71900436    -0.72600
O2491       O  0.89870775  0.45860360  0.76706535    -0.72500
O2492       O  0.86432235  0.41498680  0.75869128    -0.72500
O2493       O  0.74376144  0.41895892  0.75576335    -0.72400
O2494       O  0.78109718  0.46330077  0.75741105    -0.72500
O2495       O  0.77302536  0.44087586  0.71328226    -0.72400
O2496       O  0.74743128  0.44133793  0.80013229    -0.72600
V2497       V  0.87828049  0.43687990  0.76289520     1.35200
V2498       V  0.76358090  0.44106739  0.75683805     1.35200
C2499       C  0.80066939  0.43790872  0.81827988     0.76800
C2500       C  0.83711403  0.43978805  0.70119457     0.76900
C2501       C  0.84706425  0.46849373  0.76260914     0.76800
C2502       C  0.79884103  0.40947250  0.75591607     0.76700
O2503       O  0.69900729  0.31311208  0.79710059    -0.72400
O2504       O  0.67457983  0.31529493  0.70890241    -0.72600
O2505       O  0.66894983  0.29239026  0.75090299    -0.72500
O2506       O  0.70092498  0.33606247  0.75507297    -0.72500
O2507       O  0.82126739  0.33272420  0.75011045    -0.72400
O2508       O  0.78839687  0.28819829  0.74452304    -0.72500
O2509       O  0.79511410  0.31205642  0.70377952    -0.72400
O2510       O  0.81835633  0.30900243  0.79080894    -0.72600
V2511       V  0.68826818  0.31412096  0.75292800     1.35200
V2512       V  0.80352864  0.31053635  0.74744275     1.35200
C2513       C  0.76352279  0.31072179  0.80892806     0.76800
C2514       C  0.73152873  0.31422866  0.69142415     0.76900
C2515       C  0.72192934  0.28283191  0.74633559     0.76800
C2516       C  0.76575290  0.34194033  0.75371200     0.76700
O2517       O  0.65860527  0.43222016  0.95896275    -0.72400
O2518       O  0.62902740  0.43453143  0.04684732    -0.72600
O2519       O  0.61739556  0.45500316  0.99925263    -0.72500
O2520       O  0.66898508  0.41186661  0.00652814    -0.72500
O2521       O  0.78677013  0.41821288  0.01186351    -0.72400
O2522       O  0.73430274  0.46143339  0.00691784    -0.72500
O2523       O  0.74647621  0.44059320  0.05294033    -0.72400
O2524       O  0.77506307  0.43925502  0.96596163    -0.72600
V2525       V  0.64564831  0.43353677  0.00300804     1.35200
V2526       V  0.75830340  0.43972928  0.00930787     1.35200
C2527       C  0.72216627  0.43551534  0.94762147     0.76800
C2528       C  0.68347683  0.43771588  0.06498042     0.76900
C2529       C  0.66706432  0.46558855  0.00183539     0.76800
C2530       C  0.73655110  0.40768215  0.01035762     0.76700
O2531       O  0.74882749  0.33140005  0.00612348    -0.72400
O2532       O  0.78739631  0.28739369  0.99867945    -0.72600
O2533       O  0.77807697  0.30819975  0.04614779    -0.72500
O2534       O  0.75579643  0.31078734  0.95888736    -0.72500
O2535       O  0.87613804  0.31444985  0.95427408    -0.72400
O2536       O  0.89666897  0.31379296  0.04234374    -0.72500
O2537       O  0.90706768  0.29236017  0.99656313    -0.72400
O2538       O  0.86785149  0.33601072  0.00018381    -0.72600
V2539       V  0.76981636  0.30950137  0.00239825     1.35200
V2540       V  0.88462080  0.31406187  0.99840535     1.35200
C2541       C  0.80205837  0.34122526  0.00381234     0.76800
C2542       C  0.85434146  0.28243278  0.99649386     0.76900
C2543       C  0.84060419  0.31075172  0.05927553     0.76800
C2544       C  0.81188400  0.31304668  0.94170954     0.76700
O2545       O  0.76274794  0.18602906  0.52906926    -0.72400
O2546       O  0.73743036  0.18835818  0.44100725    -0.72600
O2547       O  0.76637849  0.16532916  0.48155542    -0.72500
O2548       O  0.73082220  0.20899953  0.48882012    -0.72500
O2549       O  0.85009302  0.21368826  0.48387491    -0.72400
O2550       O  0.88610606  0.16945915  0.47662891    -0.72500
O2551       O  0.85737402  0.19265460  0.43671523    -0.72400
O2552       O  0.88232335  0.19032238  0.52348069    -0.72600
V2553       V  0.75162487  0.18727705  0.48499510     1.35200
V2554       V  0.86658612  0.19149874  0.48024428     1.35200
C2555       C  0.82765957  0.18756311  0.54106062     0.76800
C2556       C  0.79413733  0.19064235  0.42392947     0.76900
C2557       C  0.83174988  0.15984137  0.47824857     0.76800
C2558       C  0.78389066  0.21882276  0.48818175     0.73500
O2559       O  0.95889813  0.06677698  0.51608344    -0.72400
O2560       O  0.97451281  0.06531245  0.42738929    -0.72600
O2561       O  0.94653044  0.08781138  0.46990213    -0.72500
O2562       O  0.99007881  0.04439224  0.47342749    -0.72500
O2563       O  0.87123330  0.03883655  0.46918829    -0.72400
O2564       O  0.82697113  0.08277810  0.46655387    -0.72500
O2565       O  0.85514477  0.06020214  0.42411764    -0.72400
O2566       O  0.83977710  0.06144731  0.51180184    -0.72600
V2567       V  0.96518390  0.06597002  0.47165940     1.35200
V2568       V  0.85061867  0.06089514  0.46803921     1.35200
C2569       C  0.89584029  0.06453943  0.52894198     0.76800
C2570       C  0.91694439  0.06242724  0.41065337     0.76900
C2571       C  0.87994860  0.09276340  0.46746274     0.76800
C2572       C  0.93879996  0.03417654  0.47156596     0.76700
O2573       O  0.91303812  0.08251934  0.72642904    -0.72400
O2574       O  0.87585433  0.03816043  0.72222911    -0.72600
O2575       O  0.90796082  0.06067299  0.68085421    -0.72500
O2576       O  0.88427139  0.06011496  0.76807963    -0.72500
O2577       O  0.76547329  0.06532667  0.76305642    -0.72400
O2578       O  0.78839574  0.06448410  0.67444077    -0.72500
O2579       O  0.75638169  0.04305343  0.71816957    -0.72400
O2580       O  0.79386749  0.08669688  0.71934865    -0.72600
V2581       V  0.89297309  0.06043061  0.72427642     1.35200
V2582       V  0.77831103  0.06477280  0.71882172     1.35200
C2583       C  0.85896276  0.09216418  0.72386330     0.76800
C2584       C  0.80885693  0.03312165  0.71995391     0.76900
C2585       C  0.85298990  0.06249120  0.66258255     0.76800
C2586       C  0.82180227  0.06289246  0.78070158     0.76700
O2587       O  0.83979665  0.16954536  0.73334437    -0.72400
O2588       O  0.88283124  0.21372440  0.73644120    -0.72600
O2589       O  0.84136031  0.19282450  0.69202255    -0.72500
O2590       O  0.87730485  0.19033943  0.77825798    -0.72500
O2591       O  0.99618068  0.18605630  0.77028146    -0.72400
O2592       O  0.95838186  0.18753526  0.68276833    -0.72500
O2593       O  0.67900580  0.20784116  0.72607027    -0.72400
O2594       O  0.95867322  0.16507562  0.72601097    -0.72600
V2595       V  0.86259553  0.19155869  0.73487341     1.35200
V2596       V  0.97599792  0.18688789  0.72663983     1.35200
C2597       C  0.89300362  0.15982682  0.72909960     0.76800
C2598       C  0.94981689  0.21846632  0.73256828     0.76900
C2599       C  0.89265600  0.19039574  0.67255127     0.76800
C2600       C  0.94208173  0.18770469  0.78907649     0.76700
O2601       O  0.83337202  0.53576563  0.99545320    -0.72400
O2602       O  0.78067445  0.57951810  0.99270187    -0.72600
O2603       O  0.82155718  0.55766294  0.95047858    -0.72500
O2604       O  0.78960058  0.55779814  0.03744969    -0.72500
O2605       O  0.90465640  0.56529001  0.04539689    -0.72400
O2606       O  0.93989583  0.56267998  0.95796052    -0.72500
O2607       O  0.89920691  0.58523399  0.99767759    -0.72400
O2608       O  0.94878484  0.54241382  0.00570159    -0.72600
V2609       V  0.80847784  0.55773579  0.99416429     1.35200
V2610       V  0.92086116  0.56372766  0.00157955     1.35200
C2611       C  0.90050166  0.53170596  0.00175105     0.76800
C2612       C  0.83237721  0.58978257  0.99423029     0.76900
C2613       C  0.88563639  0.56026740  0.93919052     0.76800
C2614       C  0.84038966  0.56217034  0.05631285     0.76700
O2615       O  0.86233013  0.66590114  0.98268102    -0.72400
O2616       O  0.84340707  0.71080673  0.98444302    -0.72600
O2617       O  0.86639907  0.68811963  0.02725831    -0.72500
O2618       O  0.84264645  0.68855300  0.93999171    -0.72500
O2619       O  0.72186259  0.68609867  0.94475878    -0.72400
O2620       O  0.74598359  0.68595487  0.03333497    -0.72500
O2621       O  0.72295899  0.70816770  0.98956681    -0.72400
O2622       O  0.74157406  0.66388578  0.98859943    -0.72600
V2623       V  0.85137814  0.68829355  0.98376521     1.35200
V2624       V  0.73542255  0.68607703  0.98895952     1.35200
C2625       C  0.80456669  0.65727344  0.98554372     0.76800
C2626       C  0.77894415  0.71714046  0.98672594     0.76900
C2627       C  0.81117019  0.68701679  0.04534905     0.76800
C2628       C  0.77869941  0.68752377  0.92729754     0.76700
O2629       O  0.83232989  0.58411890  0.24989668    -0.72400
O2630       O  0.79686321  0.54002911  0.24975132    -0.72600
O2631       O  0.82818775  0.56166490  0.20628347    -0.72500
O2632       O  0.80404472  0.56263890  0.29346187    -0.72500
O2633       O  0.68413965  0.56669091  0.28799077    -0.72400
O2634       O  0.70845822  0.56568225  0.19958370    -0.72500
O2635       O  0.67745544  0.54427949  0.24352134    -0.72400
O2636       O  0.71260415  0.58817430  0.24393508    -0.72600
V2637       V  0.81292262  0.56216137  0.24971227     1.35200
V2638       V  0.69790170  0.56612676  0.24385661     1.35200
C2639       C  0.77826758  0.59366659  0.24658181     0.76800
C2640       C  0.73072241  0.53462979  0.24679320     0.76900
C2641       C  0.77325916  0.56367028  0.18805622     0.76800
C2642       C  0.74078982  0.56495710  0.30575214     0.76700
O2643       O  0.87207496  0.71297226  0.23166000    -0.72400
O2644       O  0.80312805  0.67112294  0.24646427    -0.72600
O2645       O  0.85708813  0.69470331  0.28222727    -0.72500
O2646       O  0.81577020  0.68926954  0.19629743    -0.72500
O2647       O  0.93224619  0.68254905  0.18891055    -0.72400
O2648       O  0.96649905  0.68401839  0.27634792    -0.72500
O2649       O  0.91544090  0.66253386  0.23615951    -0.72400
O2650       O  0.98654533  0.70420953  0.22908706    -0.72600
V2651       V  0.83914090  0.69191448  0.23906408     1.35200
V2652       V  0.94809595  0.68352891  0.23267734     1.35200
C2653       C  0.94165397  0.71569314  0.22833245     0.76800
C2654       C  0.84832407  0.65969599  0.24353443     0.76900
C2655       C  0.91676589  0.68943649  0.29439997     0.76800
C2656       C  0.86717470  0.68512351  0.17791629     0.76700
O2657       O  0.73653711  0.93755512  0.75761787    -0.72400
O2658       O  0.74522728  0.93418860  0.66869725    -0.72600
O2659       O  0.76966414  0.95715695  0.71065053    -0.72500
O2660       O  0.05904238  0.91551912  0.71846515    -0.72500
O2661       O  0.94062506  0.92102910  0.71321494    -0.72400
O2662       O  0.99056842  0.96480995  0.71304475    -0.72500
O2663       O  0.96877727  0.94253912  0.66909959    -0.72400
O2664       O  0.95790599  0.94336059  0.75653384    -0.72600
V2665       V  0.73958136  0.93589635  0.71312912     1.35200
V2666       V  0.96680632  0.94284932  0.71299582     1.35200
C2667       C  0.01485348  0.94110755  0.77346653     0.76800
C2668       C  0.68831984  0.93786393  0.65227577     0.76900
C2669       C  0.72038436  0.96779052  0.71014618     0.76800
C2670       C  0.99197554  0.91079373  0.71652352     0.76700
O2671       O  0.85891478  0.81812576  0.77453215    -0.72400
O2672       O  0.81692119  0.81845931  0.68760413    -0.72600
O2673       O  0.81080778  0.79679562  0.73255756    -0.72500
O2674       O  0.86362812  0.83977283  0.72967661    -0.72500
O2675       O  0.98105989  0.83367251  0.72313096    -0.72400
O2676       O  0.92501302  0.79036255  0.72053424    -0.72500
O2677       O  0.93474646  0.81357964  0.67843154    -0.72400
O2678       O  0.97298940  0.81060439  0.76489575    -0.72600
V2679       V  0.83980308  0.81816361  0.73092768     1.35200
V2680       V  0.95123179  0.81211661  0.72190349     1.35200
C2681       C  0.92354990  0.81440711  0.78453811     0.76800
C2682       C  0.86951055  0.81652404  0.66825928     0.76900
C2683       C  0.85832419  0.78618577  0.72656119     0.76800
C2684       C  0.93094750  0.84411170  0.72647949     0.76700
O2685       O  0.89057122  0.93838995  0.91671341    -0.72400
O2686       O  0.85941515  0.93850235  0.00465229    -0.72600
O2687       O  0.84918401  0.96013304  0.95926273    -0.72500
O2688       O  0.89667769  0.91694921  0.96210170    -0.72500
O2689       O  0.01511677  0.92236322  0.96870140    -0.72400
O2690       O  0.96620339  0.96619413  0.96752487    -0.72500
O2691       O  0.97754112  0.94396066  0.01155644    -0.72400
O2692       O  0.00759442  0.94446133  0.92469326    -0.72600
V2693       V  0.87622705  0.93865584  0.96077275     1.35200
V2694       V  0.98930756  0.94419485  0.96794706     1.35200
C2695       C  0.95539719  0.94106513  0.90577278     0.76800
C2696       C  0.91434711  0.94089636  0.02312190     0.76900
C2697       C  0.89877462  0.97058894  0.96298049     0.76800
C2698       C  0.96315372  0.91221214  0.96592257     0.76700
O2699       O  0.07209173  0.81736574  0.92420256    -0.72400
O2700       O  0.77601462  0.81660088  0.01193041    -0.72600
O2701       O  0.78253743  0.79394111  0.96815619    -0.72500
O2702       O  0.07596879  0.83964838  0.96908184    -0.72500
O2703       O  0.95752824  0.83527249  0.97691438    -0.72400
O2704       O  0.99855012  0.79139205  0.97820712    -0.72500
O2705       O  0.99777626  0.81459249  0.02068936    -0.72400
O2706       O  0.95541090  0.81204374  0.93464941    -0.72600
V2707       V  0.09264670  0.81767456  0.96783050     1.35200
V2708       V  0.97963964  0.81338362  0.97740123     1.35200
C2709       C  0.00582614  0.81442956  0.91478330     0.76800
C2710       C  0.06410299  0.81628315  0.03067708     0.76900
C2711       C  0.06376796  0.78615919  0.97231472     0.76800
C2712       C  0.01050173  0.84500413  0.97329718     0.76700
O2713       O  0.71880305  0.58542635  0.75445613    -0.72400
O2714       O  0.99042376  0.53936781  0.75399323    -0.72600
O2715       O  0.71419524  0.56186133  0.71207996    -0.72500
O2716       O  0.99606962  0.56238673  0.79689468    -0.72500
O2717       O  0.87997573  0.56860376  0.78675819    -0.72400
O2718       O  0.92079803  0.56457626  0.69985251    -0.72500
O2719       O  0.87371387  0.54515617  0.74511201    -0.72400
O2720       O  0.92502021  0.58831417  0.74139125    -0.72600
V2721       V  0.01410696  0.56132581  0.75363743     1.35200
V2722       V  0.90219829  0.56660381  0.74345765     1.35200
C2723       C  0.99046042  0.59327452  0.74754707     0.76800
C2724       C  0.92298588  0.53479423  0.74995541     0.76900
C2725       C  0.98724126  0.56200033  0.69058758     0.76800
C2726       C  0.93129045  0.56582467  0.80657930     0.76700
O2727       O  0.77723248  0.68791220  0.68785164    -0.72400
O2728       O  0.81026601  0.69032384  0.77549732    -0.72600
O2729       O  0.77456103  0.66742568  0.73507325    -0.72500
O2730       O  0.81539804  0.71075040  0.72839241    -0.72500
O2731       O  0.69807825  0.71626459  0.73684871    -0.72400
O2732       O  0.99267695  0.67081142  0.74049520    -0.72500
O2733       O  0.69075033  0.69451210  0.78171854    -0.72400
O2734       O  0.99927412  0.69254971  0.69579642    -0.72600
V2735       V  0.79207217  0.68921714  0.73177122     1.35200
V2736       V  0.67828259  0.69418071  0.73817894     1.35200
C2737       C  0.71247515  0.69050668  0.67652781     0.76800
C2738       C  0.75511188  0.69249367  0.79350403     0.76900
C2739       C  0.70844555  0.66239261  0.73829964     0.76800
C2740       C  0.76467204  0.72095117  0.73207167     0.76700
O2741       O  0.67490870  0.53749294  0.49879719    -0.72400
O2742       O  0.97775869  0.58181459  0.49615228    -0.72600
O2743       O  0.66070284  0.55935294  0.45395833    -0.72500
O2744       O  0.99175800  0.56016660  0.54089492    -0.72500
O2745       O  0.76696083  0.56544978  0.54558256    -0.72400
O2746       O  0.78107770  0.56311826  0.45694724    -0.72500
O2747       O  0.75637347  0.58614527  0.49860264    -0.72400
O2748       O  0.79404139  0.54243681  0.50388666    -0.72600
V2749       V  0.65725858  0.55973376  0.49799305     1.35200
V2750       V  0.77229420  0.56418201  0.50119290     1.35200
C2751       C  0.74161551  0.53244485  0.50191690     0.76800
C2752       C  0.03026999  0.59189822  0.49636573     0.76900
C2753       C  0.72262730  0.56110685  0.44025971     0.76800
C2754       C  0.70462266  0.56312157  0.55891080     0.76700
O2755       O  0.03454564  0.66866700  0.48395097    -0.72400
O2756       O  0.99684496  0.71286343  0.48311624    -0.72600
O2757       O  0.03320215  0.69158335  0.52696482    -0.72500
O2758       O  0.00113135  0.68987432  0.44034941    -0.72500
O2759       O  0.88143537  0.68614131  0.44706058    -0.72400
O2760       O  0.91462745  0.68696297  0.53490297    -0.72500
O2761       O  0.87868005  0.70832470  0.49159615    -0.72400
O2762       O  0.91531864  0.66452419  0.49053380    -0.72600
V2763       V  0.01408203  0.69068627  0.48379075     1.35200
V2764       V  0.89979692  0.68654840  0.49090757     1.35200
C2765       C  0.98077528  0.65904507  0.48711036     0.76800
C2766       C  0.93067776  0.71807866  0.48671498     0.76900
C2767       C  0.98013326  0.68939096  0.54570311     0.76800
C2768       C  0.93637123  0.68801152  0.42884338     0.76700
O2769       O  0.84118290  0.43347630  0.46059510    -0.72400
O2770       O  0.80307223  0.43663936  0.54790779    -0.72600
O2771       O  0.79394629  0.45649345  0.49977367    -0.72500
O2772       O  0.84720683  0.41360059  0.50873500    -0.72500
O2773       O  0.96503408  0.42009127  0.51304904    -0.72400
O2774       O  0.90812258  0.46342777  0.51145425    -0.72500
O2775       O  0.92136294  0.44153783  0.55554315    -0.72400
O2776       O  0.95462257  0.44186870  0.46909150    -0.72600
V2777       V  0.82342597  0.43520202  0.50435457     1.35200
V2778       V  0.93500990  0.44165575  0.51212966     1.35200
C2779       C  0.90556406  0.43689863  0.45005740     0.76800
C2780       C  0.85703746  0.43914081  0.56674052     0.76900
C2781       C  0.84079699  0.46733624  0.50543495     0.76800
C2782       C  0.91509047  0.40946761  0.51147700     0.76700
O2783       O  0.92840348  0.33289414  0.50338684    -0.72400
O2784       O  0.65007191  0.29057257  0.49929329    -0.72600
O2785       O  0.64350119  0.31214427  0.54515167    -0.72500
O2786       O  0.93813732  0.31116868  0.45813814    -0.72500
O2787       O  0.73177992  0.31814987  0.45125765    -0.72400
O2788       O  0.76261853  0.31676316  0.53957693    -0.72500
O2789       O  0.76828659  0.29566286  0.49244192    -0.72400
O2790       O  0.72928487  0.33938232  0.49815381    -0.72600
V2791       V  0.63181574  0.31272327  0.50166976     1.35200
V2792       V  0.74581290  0.31740472  0.49550040     1.35200
C2793       C  0.98018210  0.34303025  0.50065906     0.76800
C2794       C  0.71632407  0.28561625  0.49452152     0.76900
C2795       C  0.70744966  0.31404293  0.55735175     0.76800
C2796       C  0.66660216  0.31575538  0.43993648     0.76700
O2797       O  0.70659189  0.43596644  0.30533841    -0.72400
O2798       O  0.72781028  0.43716836  0.21689708    -0.72600
O2799       O  0.73147259  0.45854236  0.26295917    -0.72500
O2800       O  0.70534124  0.41443041  0.25878694    -0.72500
O2801       O  0.92013698  0.41548323  0.25610476    -0.72400
O2802       O  0.95273635  0.45977840  0.25858711    -0.72500
O2803       O  0.94591721  0.43772207  0.21378707    -0.72400
O2804       O  0.92405928  0.43739370  0.30105241    -0.72600
V2805       V  0.71550337  0.43657735  0.26098624     1.35200
V2806       V  0.93810791  0.43754381  0.25754539     1.35200
C2807       C  0.97935596  0.43511739  0.31898978     0.76800
C2808       C  0.67007484  0.43849343  0.19965528     0.76900
C2809       C  0.67666441  0.46780692  0.25967405     0.76800
C2810       C  0.97538686  0.40611503  0.25751267     0.76700
O2811       O  0.85983544  0.31092044  0.29864956    -0.72400
O2812       O  0.82116733  0.31324013  0.21155650    -0.72600
O2813       O  0.81848096  0.29034399  0.25378415    -0.72500
O2814       O  0.85999087  0.33383026  0.25658884    -0.72500
O2815       O  0.65390451  0.33141784  0.24884198    -0.72400
O2816       O  0.93501756  0.28541020  0.24288041    -0.72500
O2817       O  0.94020691  0.30945853  0.20315458    -0.72400
O2818       O  0.97670863  0.30536116  0.28912413    -0.72600
V2819       V  0.84211955  0.31197663  0.25498934     1.35200
V2820       V  0.95536719  0.30741709  0.24630837     1.35200
C2821       C  0.92549496  0.30794947  0.30861877     0.76800
C2822       C  0.87507372  0.31197959  0.19261012     0.76900
C2823       C  0.86888461  0.28040863  0.24754213     0.76800
C2824       C  0.92617160  0.33901324  0.25450514     0.76700
O2825       O  0.81780577  0.06812551  0.02115873    -0.72400
O2826       O  0.85196441  0.06841654  0.93332912    -0.72600
O2827       O  0.81449884  0.08993761  0.97637206    -0.72500
O2828       O  0.85875416  0.04652799  0.97807283    -0.72500
O2829       O  0.74255286  0.04091433  0.96708156    -0.72400
O2830       O  0.69558923  0.08494358  0.97052742    -0.72500
O2831       O  0.73252224  0.06445058  0.92554475    -0.72400
O2832       O  0.70191997  0.06157973  0.01186273    -0.72600
V2833       V  0.83354114  0.06813217  0.97707038     1.35200
V2834       V  0.72041534  0.06302906  0.96893144     1.35200
C2835       C  0.75308244  0.06476922  0.03140785     0.76800
C2836       C  0.79686212  0.06695842  0.91460812     0.76900
C2837       C  0.74803862  0.09495310  0.97403137     0.76800
C2838       C  0.80919741  0.03623468  0.97257582     0.76700
O2839       O  0.61629948  0.18782770  0.02767051    -0.72400
O2840       O  0.59503927  0.18948982  0.93948921    -0.72600
O2841       O  0.62553484  0.16689588  0.98036013    -0.72500
O2842       O  0.89861474  0.20706522  0.98641690    -0.72500
O2843       O  0.70208524  0.21588666  0.98369346    -0.72400
O2844       O  0.74451174  0.17201161  0.97524091    -0.72500
O2845       O  0.71337114  0.19528537  0.93585182    -0.72400
O2846       O  0.73599226  0.19238115  0.02290675    -0.72600
V2847       V  0.60723066  0.18879802  0.98345608     1.35200
V2848       V  0.72162575  0.19383618  0.97951691     1.35200
C2849       C  0.68055690  0.18963698  0.04013525     0.76800
C2850       C  0.65134290  0.19245404  0.92259505     0.76900
C2851       C  0.69171017  0.16200963  0.97611621     0.76800
C2852       C  0.63480969  0.22060813  0.98638530     0.76700
O2853       O  0.93329038  0.06289404  0.16972382    -0.72400
O2854       O  0.88805580  0.06409306  0.25685802    -0.72600
O2855       O  0.93028050  0.08532337  0.21434063    -0.72500
O2856       O  0.88757814  0.04164834  0.21196843    -0.72500
O2857       O  0.00398736  0.03649594  0.22292179    -0.72400
O2858       O  0.72004288  0.07974438  0.22536003    -0.72500
O2859       O  0.00579933  0.05931467  0.26681418    -0.72400
O2860       O  0.72137174  0.05772224  0.18105259    -0.72600
V2861       V  0.91195432  0.06337279  0.21340046     1.35200
V2862       V  0.69715586  0.05789553  0.22370696     1.35200
C2863       C  0.67068193  0.06024827  0.16111326     0.76800
C2864       C  0.94069352  0.06228709  0.27660306     0.76900
C2865       C  0.66841736  0.08967008  0.22016046     0.76800
C2866       C  0.93820401  0.03152976  0.21662123     0.76700
O2867       O  0.67576967  0.16643177  0.23274820    -0.72400
O2868       O  0.72298670  0.21012515  0.23517264    -0.72600
O2869       O  0.68585573  0.18923488  0.19047648    -0.72500
O2870       O  0.71111145  0.18756301  0.27761436    -0.72500
O2871       O  0.83086443  0.18377386  0.27211547    -0.72400
O2872       O  0.80196716  0.18223810  0.18412295    -0.72500
O2873       O  0.83990630  0.20457614  0.22609342    -0.72400
O2874       O  0.79507397  0.16111587  0.23019317    -0.72600
V2875       V  0.70115971  0.18821945  0.23390250     1.35200
V2876       V  0.81473175  0.18298601  0.22821239     1.35200
C2877       C  0.72795949  0.15631715  0.23137974     0.76800
C2878       C  0.78969925  0.21479550  0.23074024     0.76900
C2879       C  0.73887027  0.18579264  0.17227918     0.76800
C2880       C  0.77526792  0.18590841  0.28991791     0.76700
C2881       C  0.68388260  0.10676717  0.22140016    -0.06700
C2882       C  0.74353286  0.11204825  0.24026262    -0.17900
C2883       C  0.75700474  0.12806751  0.24487070     0.10500
C2884       C  0.71132265  0.13929769  0.22979799    -0.06700
C2885       C  0.65212627  0.13407948  0.21060929    -0.17900
C2886       C  0.63850254  0.11800311  0.20588965     0.10500
S2887       S  0.82949709  0.13342082  0.27222895    -0.32900
S2888       S  0.89127837  0.11387469  0.17927534    -0.32900
H2889       H  0.93252886  0.10173394  0.16485090     0.28500
H2890       H  0.78265269  0.14444480  0.28717185     0.28500
H2891       H  0.77846934  0.10364883  0.25250411     0.19100
H2892       H  0.61775621  0.14258183  0.19836036     0.19100
C2893       C  0.69248427  0.18844740  0.07391514    -0.06700
C2894       C  0.75095953  0.17875379  0.08459600    -0.17900
C2895       C  0.76766978  0.17749881  0.11634663     0.10500
C2896       C  0.72590447  0.18641720  0.13816738    -0.06700
C2897       C  0.66695190  0.19601476  0.12723804    -0.17900
C2898       C  0.64958203  0.19707298  0.09557078     0.10500
S2899       S  0.83788573  0.16328495  0.12736240    -0.32900
S2900       S  0.89478569  0.20862715  0.08480664    -0.32900
H2901       H  0.92195398  0.21239685  0.05523049     0.28500
H2902       H  0.88469427  0.17439375  0.14204583     0.28500
H2903       H  0.78345363  0.17193861  0.06800696     0.19100
H2904       H  0.95886362  0.20269657  0.14371417     0.19100
C2905       C  0.69123842  0.06135264  0.12802792    -0.06700
C2906       C  0.75331693  0.07067289  0.11992200    -0.17900
C2907       C  0.77604223  0.07210651  0.08876132     0.10500
C2908       C  0.73506628  0.06410237  0.06511322    -0.06700
C2909       C  0.67223714  0.05511177  0.07359605    -0.17900
C2910       C  0.65137036  0.05331451  0.10449209     0.10500
S2911       S  0.85553145  0.08446356  0.07991274    -0.32900
S2912       S  0.57674856  0.03975533  0.11247733    -0.32900
H2913       H  0.61701745  0.03260202  0.13685790     0.28500
H2914       H  0.87869893  0.08736788  0.11080697     0.28500
H2915       H  0.78383410  0.07690791  0.13815173     0.19100
H2916       H  0.63914167  0.04911336  0.05595317     0.19100
C2917       C  0.73333504  0.11214039  0.97504970    -0.06700
C2918       C  0.67143568  0.11820761  0.95861276    -0.17900
C2919       C  0.65823578  0.13445818  0.95731762     0.10500
C2920       C  0.70698767  0.14497237  0.97336569    -0.06700
C2921       C  0.76937535  0.13895931  0.98927276    -0.17900
C2922       C  0.78244705  0.12278604  0.99073809     0.10500
S2923       S  0.58079226  0.14104510  0.93344465    -0.32900
S2924       S  0.85996140  0.11662023  0.01493092    -0.32900
H2925       H  0.81862402  0.10443739  0.02855134     0.28500
H2926       H  0.61656747  0.15484502  0.92343908     0.28500
H2927       H  0.63412294  0.11028191  0.94600827     0.19100
H2928       H  0.80655717  0.14690399  0.00191728     0.19100
C2929       C  0.84973458  0.26346915  0.24455071    -0.06700
C2930       C  0.89341505  0.25390999  0.22495407    -0.17900
C2931       C  0.87338006  0.23826490  0.21864673     0.10500
C2932       C  0.80913437  0.23171304  0.23292536    -0.06700
C2933       C  0.76541857  0.24128499  0.25239472    -0.17900
C2934       C  0.78543737  0.25686615  0.25875606     0.10500
S2935       S  0.92967321  0.22773048  0.19070967    -0.32900
S2936       S  0.72958699  0.26714356  0.28717033    -0.32900
H2937       H  0.79309833  0.27364431  0.30194318     0.28500
H2938       H  0.86819656  0.22001462  0.17648830     0.28500
H2939       H  0.94206448  0.25881166  0.21348579     0.19100
H2940       H  0.71690280  0.23639360  0.26398809     0.19100
C2941       C  0.96403686  0.38894681  0.25617704    -0.06700
C2942       C  0.90325612  0.38259788  0.27237554    -0.17900
C2943       C  0.89202933  0.36635775  0.27371712     0.10500
C2944       C  0.94082732  0.35609396  0.25727699    -0.06700
C2945       C  0.67221714  0.36494470  0.23886048    -0.17900
C2946       C  0.01434366  0.37870837  0.24061619     0.10500
S2947       S  0.81710646  0.35959044  0.29835544    -0.32900
S2948       S  0.75622026  0.38876335  0.21397483    -0.32900
H2949       H  0.71506674  0.40174321  0.20299928     0.28500
H2950       H  0.85841686  0.34688791  0.31047699     0.28500
H2951       H  0.86561280  0.39033887  0.28504287     0.19100
H2952       H  0.70999597  0.35748778  0.22562150     0.19100
C2953       C  0.65025532  0.31532738  0.40596843    -0.06700
C2954       C  0.58625977  0.30686105  0.39604069    -0.17900
C2955       C  0.89257180  0.30345148  0.36468187     0.10500
C2956       C  0.94385640  0.30840275  0.34209197    -0.06700
C2957       C  0.01350289  0.31472407  0.35157427    -0.17900
C2958       C  0.03151592  0.31683317  0.38310847     0.10500
S2959       S  0.80701821  0.29325840  0.35396481    -0.32900
S2960       S  0.12047546  0.32597584  0.39205613    -0.32900
H2961       H  0.09005142  0.33673104  0.41338569     0.28500
H2962       H  0.77727924  0.29182861  0.38400672     0.28500
H2963       H  0.55122642  0.30128266  0.41302319     0.19100
H2964       H  0.05330217  0.31858311  0.33423595     0.19100
C2965       C  0.92536230  0.43521363  0.41657283    -0.06700
C2966       C  0.99121192  0.44269927  0.40619042    -0.17900
C2967       C  0.01267284  0.44217978  0.37486589     0.10500
C2968       C  0.96637285  0.43436593  0.35294153    -0.06700
C2969       C  0.90228700  0.42634937  0.36335119    -0.17900
C2970       C  0.88253166  0.42628825  0.39484999     0.10500
S2971       S  0.09662508  0.45236554  0.36316426    -0.32900
S2972       S  0.80364016  0.41423029  0.40558353    -0.32900
H2973       H  0.84080553  0.40752183  0.43127649     0.28500
H2974       H  0.12332232  0.45620894  0.39317786     0.28500
H2975       H  0.02558316  0.44928413  0.42260962     0.19100
H2976       H  0.86742887  0.41995159  0.34674813     0.19100
C2977       C  0.93507199  0.39259152  0.51105647    -0.06700
C2978       C  0.99192554  0.38750619  0.49093084    -0.17900
C2979       C  0.00612143  0.37145929  0.48624332     0.10500
C2980       C  0.96390496  0.36010215  0.50258304    -0.06700
C2981       C  0.90743599  0.36523504  0.52285581    -0.17900
C2982       C  0.89328702  0.38125988  0.52748379     0.10500
S2983       S  0.07446572  0.36624206  0.45727688    -0.32900
S2984       S  0.82426805  0.38649478  0.55604913    -0.32900
H2985       H  0.86614406  0.39937682  0.56755663     0.28500
H2986       H  0.72630581  0.35576923  0.44813165     0.28500
H2987       H  0.02318878  0.39606430  0.47765336     0.19100
H2988       H  0.87550435  0.35671508  0.53595254     0.19100
C2989       C  0.81580284  0.48404828  0.50513783    -0.06700
C2990       C  0.75616941  0.48828499  0.48520256    -0.17900
C2991       C  0.72807984  0.50370866  0.48444965     0.10500
C2992       C  0.76028969  0.51542263  0.50398702    -0.06700
C2993       C  0.81823044  0.51105289  0.52460299    -0.17900
C2994       C  0.84617519  0.49564953  0.52539649     0.10500
S2995       S  0.65544174  0.50778830  0.45633112    -0.32900
S2996       S  0.91808062  0.49143710  0.55381384    -0.32900
H2997       H  0.97229654  0.48788596  0.53118319     0.28500
H2998       H  0.60696876  0.51486719  0.47788042     0.28500
H2999       H  0.73155513  0.47951534  0.46974339     0.19100
H3000       H  0.84300490  0.51982353  0.54002188     0.19100
C3001       C  0.99308661  0.64179103  0.48783898    -0.06700
C3002       C  0.94382029  0.63261606  0.50561944    -0.17900
C3003       C  0.95470921  0.61642195  0.50909073     0.10500
C3004       C  0.01540507  0.60896943  0.49396471    -0.06700
C3005       C  0.73153374  0.61772965  0.47871357    -0.17900
C3006       C  0.72268622  0.63398500  0.47480776     0.10500
S3007       S  0.89224662  0.60621523  0.53479354    -0.32900
S3008       S  0.79049935  0.64384480  0.45087051    -0.32900
H3009       H  0.73682573  0.65307921  0.43521483     0.28500
H3010       H  0.94854335  0.59674750  0.54816779     0.28500
H3011       H  0.89772969  0.63818928  0.51787300     0.19100
H3012       H  0.77959153  0.61196680  0.46822946     0.19100
C3013       C  0.69679298  0.68987859  0.64268406    -0.06700
C3014       C  0.97195204  0.69728303  0.63250036    -0.17900
C3015       C  0.95323755  0.69792998  0.60089959     0.10500
C3016       C  0.99619451  0.68930247  0.57928441    -0.06700
C3017       C  0.05750668  0.68037065  0.58978711    -0.17900
C3018       C  0.07581363  0.67957011  0.62141689     0.10500
S3019       S  0.87653228  0.71057704  0.58955969    -0.32900
S3020       S  0.81786200  0.66867962  0.63309257    -0.32900
H3021       H  0.77778373  0.66189871  0.65771507     0.28500
H3022       H  0.90950003  0.71561979  0.56171979     0.28500
H3023       H  0.93884329  0.70415733  0.64876048     0.19100
H3024       H  0.09036789  0.67362002  0.57322016     0.19100
C3025       C  0.00564744  0.56159921  0.65707834    -0.06700
C3026       C  0.73840081  0.56974043  0.64645411    -0.17900
C3027       C  0.74965141  0.57043265  0.61417550     0.10500
C3028       C  0.69635724  0.56351377  0.59347558    -0.06700
C3029       C  0.98072702  0.55312603  0.60394974    -0.17900
C3030       C  0.96555384  0.55212458  0.63564517     0.10500
S3031       S  0.83021516  0.58127559  0.60116271    -0.32900
S3032       S  0.89741425  0.53781932  0.64728214    -0.32900
H3033       H  0.93902762  0.53314325  0.67360766     0.28500
H3034       H  0.78824076  0.58994678  0.57937288     0.28500
H3035       H  0.77905271  0.57527218  0.66196339     0.19100
H3036       H  0.94900874  0.54567949  0.58798128     0.19100
C3037       C  0.00624514  0.61051994  0.74636271    -0.06700
C3038       C  0.95607043  0.62002946  0.72934263    -0.17900
C3039       C  0.96734538  0.63623852  0.72633482     0.10500
C3040       C  0.02920311  0.64349017  0.74134038    -0.06700
C3041       C  0.07928944  0.63411411  0.75854835    -0.17900
C3042       C  0.06836957  0.61779697  0.76150156     0.10500
S3043       S  0.90351869  0.64675327  0.70130937    -0.32900
S3044       S  0.13188857  0.60680591  0.78606484    -0.32900
H3045       H  0.18071211  0.61926928  0.79392571     0.28500
H3046       H  0.95912811  0.65628675  0.68795170     0.28500
H3047       H  0.90837065  0.61473662  0.71740382     0.19100
H3048       H  0.78741061  0.64302675  0.77383445     0.19100
C3049       C  0.87713330  0.98747432  0.96348595    -0.06700
C3050       C  0.91667439  0.99768391  0.98340456    -0.17900
C3051       C  0.89354558  0.01325696  0.98798589     0.10500
C3052       C  0.83035493  0.01924728  0.97154249    -0.06700
C3053       C  0.79071731  0.00900665  0.95154112    -0.17900
C3054       C  0.81389151  0.99336623  0.94697464     0.10500
S3055       S  0.94455102  0.02437684  0.01691433    -0.32900
S3056       S  0.76307356  0.98192746  0.91823108    -0.32900
H3057       H  0.82698538  0.97404801  0.90685219     0.28500
H3058       H  0.87958135  0.03153433  0.02902507     0.28500
H3059       H  0.96421601  0.99330515  0.99667701     0.19100
H3060       H  0.74306073  0.01337570  0.93834865     0.19100
C3061       C  0.97741205  0.89515241  0.96787101    -0.06700
C3062       C  0.92506641  0.88589919  0.98379425    -0.17900
C3063       C  0.93439080  0.86964285  0.98670361     0.10500
C3064       C  0.99757309  0.86224542  0.97295899    -0.06700
C3065       C  0.04995358  0.87160682  0.95710255    -0.17900
C3066       C  0.03974733  0.88781310  0.95389049     0.10500
S3067       S  0.86389885  0.85943125  0.00875017    -0.32900
S3068       S  0.10441840  0.89813023  0.92937722    -0.32900
H3069       H  0.05004518  0.90806073  0.91598677     0.28500
H3070       H  0.91370406  0.84902026  0.02326371     0.28500
H3071       H  0.87668831  0.89144214  0.99450838     0.19100
H3072       H  0.09791409  0.86617767  0.94588474     0.19100
C3073       C  0.83527541  0.76940951  0.72735414    -0.06700
C3074       C  0.77348665  0.76528231  0.74593352    -0.17900
C3075       C  0.74854151  0.74969361  0.74794862     0.10500
C3076       C  0.78500723  0.73781608  0.73049204    -0.06700
C3077       C  0.84583252  0.74198468  0.71152422    -0.17900
C3078       C  0.87137108  0.75749888  0.70982187     0.10500
S3079       S  0.67219376  0.74575387  0.77412958    -0.32900
S3080       S  0.94706581  0.76137316  0.68336739    -0.32900
H3081       H  0.99671496  0.76598658  0.70730584     0.28500
H3082       H  0.70629717  0.73240727  0.78727162     0.28500
H3083       H  0.74504564  0.77424047  0.75957433     0.19100
H3084       H  0.87396933  0.73303761  0.69773730     0.19100
C3085       C  0.94239794  0.81449269  0.81820226    -0.06700
C3086       C  0.00420673  0.80546200  0.82824324    -0.17900
C3087       C  0.02656200  0.80528436  0.85958055     0.10500
C3088       C  0.98594117  0.81418586  0.88150684    -0.06700
C3089       C  0.92326832  0.82289950  0.87179990    -0.17900
C3090       C  0.90212824  0.82346882  0.84045690     0.10500
S3091       S  0.10442095  0.79308054  0.87155349    -0.32900
S3092       S  0.82634483  0.83659631  0.83053047    -0.32900
H3093       H  0.86580385  0.84360336  0.80597954     0.28500
H3094       H  0.12568126  0.78799881  0.84163834     0.28500
H3095       H  0.03502302  0.79845179  0.81148067     0.19100
H3096       H  0.89199683  0.82977316  0.88869820     0.19100
C3097       C  0.00467419  0.94071329  0.80746787    -0.06700
C3098       C  0.94291297  0.93223342  0.81867781    -0.17900
C3099       C  0.92649317  0.93175848  0.85039473     0.10500
C3100       C  0.97147872  0.94034110  0.87184122    -0.06700
C3101       C  0.03479699  0.94844351  0.86055943    -0.17900
C3102       C  0.05120218  0.94891786  0.82872613     0.10500
S3103       S  0.85013690  0.91924316  0.86182058    -0.32900
S3104       S  0.79386711  0.95920146  0.81249883    -0.32900
H3105       H  0.75826858  0.96503374  0.78564108     0.28500
H3106       H  0.89170916  0.91231845  0.88608923     0.28500
H3107       H  0.90739110  0.92570823  0.80249481     0.19100
H3108       H  0.07103624  0.95482051  0.87653465     0.19100
C3109       C  0.94825250  0.86105836  0.72521495    -0.06700
C3110       C  0.89768764  0.87063117  0.70900165    -0.17900
C3111       C  0.91093638  0.88667056  0.70548000     0.10500
C3112       C  0.97563450  0.89368340  0.71879462    -0.06700
C3113       C  0.02621727  0.88406409  0.73534163    -0.17900
C3114       C  0.01245980  0.86795383  0.73919875     0.10500
S3115       S  0.84529261  0.89718801  0.68197439    -0.32900
S3116       S  0.07525384  0.85723722  0.76426262    -0.32900
H3117       H  0.01991939  0.84724716  0.77645954     0.28500
H3118       H  0.90207564  0.90500664  0.66551447     0.28500
H3119       H  0.84819964  0.86546810  0.69809818     0.19100
H3120       H  0.07562839  0.88921114  0.74628630     0.19100
C3121       C  0.92513924  0.68923350  0.32894095    -0.06700
C3122       C  0.87197214  0.69758768  0.34684244    -0.17900
C3123       C  0.87292130  0.69720044  0.37938810     0.10500
C3124       C  0.92754431  0.68808234  0.39480173    -0.06700
C3125       C  0.98043225  0.67972190  0.37724595    -0.17900
C3126       C  0.98018717  0.68017650  0.34480408     0.10500
S3127       S  0.80533445  0.70915878  0.39978944    -0.32900
S3128       S  0.05149680  0.66870295  0.32578166    -0.32900
H3129       H  0.07652055  0.68169945  0.30922630     0.28500
H3130       H  0.85576801  0.71436013  0.42304513     0.28500
H3131       H  0.82941869  0.70466585  0.33546789     0.19100
H3132       H  0.02317646  0.67284267  0.38901714     0.19100
C3133       C  0.73413375  0.56511570  0.34009678    -0.06700
C3134       C  0.67186039  0.55783905  0.35364586    -0.17900
C3135       C  0.66766393  0.55576162  0.38590596     0.10500
C3136       C  0.72618196  0.56153815  0.40562579    -0.06700
C3137       C  0.78800570  0.56900077  0.39190027    -0.17900
C3138       C  0.79219744  0.57101457  0.35967328     0.10500
S3139       S  0.58820779  0.54478096  0.39980446    -0.32900
S3140       S  0.87146711  0.58194296  0.34523767    -0.32900
H3141       H  0.83068014  0.58954176  0.32155931     0.28500
H3142       H  0.63162902  0.53574685  0.42035999     0.28500
H3143       H  0.62759391  0.55306629  0.33885988     0.19100
H3144       H  0.83270799  0.57377033  0.40644598     0.19100
C3145       C  0.68920141  0.48503864  0.25806098    -0.06700
C3146       C  0.63889886  0.49410884  0.24042488    -0.17900
C3147       C  0.65153311  0.51019656  0.23550212     0.10500
C3148       C  0.71592021  0.51750904  0.24883786    -0.06700
C3149       C  0.76617509  0.50840837  0.26633203    -0.17900
C3150       C  0.75326494  0.49245328  0.27137634     0.10500
S3151       S  0.58757489  0.52078400  0.21042684    -0.32900
S3152       S  0.81845907  0.48258287  0.29670913    -0.32900
H3153       H  0.76019656  0.47498861  0.31241244     0.28500
H3154       H  0.53430955  0.50869716  0.20619806     0.28500
H3155       H  0.59069455  0.48844013  0.22963015     0.19100
H3156       H  0.81497244  0.51388268  0.27713951     0.19100
C3157       C  0.79194973  0.61081072  0.24644645    -0.06700
C3158       C  0.85496335  0.61651413  0.26274749    -0.17900
C3159       C  0.87144863  0.63252916  0.26383091     0.10500
C3160       C  0.82470474  0.64328484  0.24799368    -0.06700
C3161       C  0.76000863  0.63775870  0.23266184    -0.17900
C3162       C  0.74396557  0.62163303  0.23109387     0.10500
S3163       S  0.95203873  0.63854342  0.28654019    -0.32900
S3164       S  0.66566801  0.61566735  0.20684514    -0.32900
H3165       H  0.70435687  0.60309475  0.19264679     0.28500
H3166       H  0.91875584  0.65262609  0.29698030     0.28500
H3167       H  0.89154809  0.60844427  0.27506320     0.19100
H3168       H  0.72440790  0.64592498  0.22014084     0.19100
C3169       C  0.76304954  0.69181200  0.82757167    -0.06700
C3170       C  0.70701852  0.68380008  0.84383325    -0.17900
C3171       C  0.71153556  0.68186381  0.87594246     0.10500
C3172       C  0.77214802  0.68850015  0.89289546    -0.06700
C3173       C  0.82835194  0.69660654  0.87651050    -0.17900
C3174       C  0.82427854  0.69839795  0.84416136     0.10500
S3175       S  0.64197325  0.66954525  0.89318431    -0.32900
S3176       S  0.89649558  0.70986733  0.82578941    -0.32900
H3177       H  0.84856939  0.71675935  0.80357676     0.28500
H3178       H  0.69664293  0.66112659  0.90996143     0.28500
H3179       H  0.66046582  0.67843297  0.83120255     0.19100
H3180       H  0.87512069  0.70192056  0.88904620     0.19100
C3181       C  0.74366718  0.76707181  0.97294872    -0.06700
C3182       C  0.69011095  0.75810208  0.98857015    -0.17900
C3183       C  0.70140234  0.74212842  0.99462972     0.10500
C3184       C  0.76792085  0.73451722  0.98435548    -0.06700
C3185       C  0.82230292  0.74354526  0.96905402    -0.17900
C3186       C  0.81070487  0.75956586  0.96290528     0.10500
S3187       S  0.63103681  0.73211223  0.01692875    -0.32900
S3188       S  0.19802796  0.77173310  0.93146136    -0.32900
H3189       H  0.25000358  0.75953342  0.92621412     0.28500
H3190       H  0.58240237  0.74489806  0.02210807     0.28500
H3191       H  0.63950617  0.76378712  0.99685523     0.19100
H3192       H  0.87315744  0.73795489  0.96067406     0.19100
C3193       C  0.82400766  0.68674730  0.07959540    -0.06700
C3194       C  0.77459490  0.67837572  0.09873326    -0.17900
C3195       C  0.78888708  0.67690650  0.13078185     0.10500
C3196       C  0.85278156  0.68429737  0.14420106    -0.06700
C3197       C  0.90233493  0.69236185  0.12516957    -0.17900
C3198       C  0.88829416  0.69381946  0.09347516     0.10500
S3199       S  0.72718303  0.66449599  0.15275665    -0.32900
S3200       S  0.95270510  0.70586173  0.07279952    -0.32900
H3201       H  0.89483229  0.71373065  0.05673423     0.28500
H3202       H  0.78221889  0.65965318  0.17426743     0.28500
H3203       H  0.72604806  0.67251499  0.08856307     0.19100
H3204       H  0.95100035  0.69821157  0.13535336     0.19100
C3205       C  0.91623913  0.56578174  0.84030788    -0.06700
C3206       C  0.85620209  0.55672336  0.85114746    -0.17900
C3207       C  0.84559169  0.55432242  0.88312646     0.10500
C3208       C  0.89599045  0.56133860  0.90494971    -0.06700
C3209       C  0.95564971  0.57051808  0.89386786    -0.17900
C3210       C  0.96591095  0.57288552  0.86201817     0.10500
S3211       S  0.77084747  0.54133349  0.89514888    -0.32900
S3212       S  0.04209376  0.58552114  0.85059542    -0.32900
H3213       H  0.00504945  0.59152746  0.82423201     0.28500
H3214       H  0.73336873  0.54039219  0.86623785     0.28500
H3215       H  0.81942576  0.55095884  0.83438079     0.19100
H3216       H  0.99396370  0.57620008  0.91017196     0.19100
C3217       C  0.82355096  0.56331515  0.09016567    -0.06700
C3218       C  0.76259441  0.55455939  0.10155434    -0.17900
C3219       C  0.74455341  0.55447950  0.13315474     0.10500
C3220       C  0.78646533  0.56380636  0.15420872    -0.06700
C3221       C  0.84509353  0.57318647  0.14288897    -0.17900
C3222       C  0.86372566  0.57314032  0.11124127     0.10500
S3223       S  0.67031849  0.54154888  0.14527595    -0.32900
S3224       S  0.93410897  0.58696305  0.09907938    -0.32900
H3225       H  0.98336306  0.57527972  0.08838164     0.28500
H3226       H  0.70748600  0.53669454  0.17253351     0.28500
H3227       H  0.72916587  0.54755405  0.08590551     0.19100
H3228       H  0.87653107  0.58066026  0.15884944     0.19100
C3229       C  0.81842419  0.60677027  0.99106832    -0.06700
C3230       C  0.86427012  0.61494655  0.97032133    -0.17900
C3231       C  0.85988177  0.63125434  0.96752076     0.10500
C3232       C  0.80928943  0.63987079  0.98618521    -0.06700
C3233       C  0.76209167  0.63163822  0.00657666    -0.17900
C3234       C  0.76711965  0.61525453  0.00963722     0.10500
S3235       S  0.91827806  0.64015276  0.93875798    -0.32900
S3236       S  0.71140180  0.60617891  0.03931828    -0.32900
H3237       H  0.76469837  0.59471221  0.04757696     0.28500
H3238       H  0.86275984  0.65082328  0.92881061     0.28500
H3239       H  0.90403751  0.60851663  0.95602452     0.19100
H3240       H  0.72317932  0.63808496  0.02121371     0.19100
C3241       C  0.95317994  0.18694313  0.82299211    -0.06700
C3242       C  0.01114881  0.19581376  0.83663378    -0.17900
C3243       C  0.01812238  0.19721609  0.86908804     0.10500
C3244       C  0.64565003  0.19168767  0.88821160    -0.06700
C3245       C  0.58615391  0.18297828  0.87504868    -0.17900
C3246       C  0.57972864  0.18079780  0.84296533     0.10500
S3247       S  0.09141763  0.20981424  0.88484912    -0.32900
S3248       S  0.50328363  0.16862503  0.82889137    -0.32900
H3249       H  0.54321917  0.16214122  0.80370081     0.28500
H3250       H  0.13014531  0.21224521  0.85686152     0.28500
H3251       H  0.04920573  0.20217384  0.82171792     0.19100
H3252       H  0.54491558  0.17747722  0.88989331     0.19100
C3253       C  0.80656401  0.06751629  0.88064816    -0.06700
C3254       C  0.86370759  0.05846320  0.86752398    -0.17900
C3255       C  0.86854044  0.05638091  0.83536327     0.10500
C3256       C  0.81610262  0.06382450  0.81523276    -0.06700
C3257       C  0.75981106  0.07326853  0.82856501    -0.17900
C3258       C  0.75488025  0.07529282  0.86090312     0.10500
S3259       S  0.93982516  0.04305876  0.82222354    -0.32900
S3260       S  0.68338381  0.08843363  0.87548667    -0.32900
H3261       H  0.72482963  0.09358897  0.90165467     0.28500
H3262       H  0.89036128  0.03505517  0.80182438     0.28500
H3263       H  0.90279219  0.05228023  0.88255907     0.19100
H3264       H  0.72007573  0.07935014  0.81372575     0.19100
C3265       C  0.79029858  0.01612232  0.71915066    -0.06700
C3266       C  0.83155799  0.00582527  0.70014779    -0.17900
C3267       C  0.80819852  0.99017491  0.69545163     0.10500
C3268       C  0.74315276  0.98453096  0.71071455    -0.06700
C3269       C  0.70251664  0.99483109  0.72971229    -0.17900
C3270       C  0.72611555  0.01031566  0.73449994     0.10500
S3271       S  0.86070846  0.97839163  0.66810192    -0.32900
S3272       S  0.67438163  0.02175030  0.76222098    -0.32900
H3273       H  0.73735553  0.02995388  0.77398919     0.28500
H3274       H  0.79825199  0.96989496  0.65670606     0.28500
H3275       H  0.88015971  0.01017032  0.68778780     0.19100
H3276       H  0.65373315  0.99058865  0.74211788     0.19100
C3277       C  0.86931897  0.10946463  0.72583758    -0.06700
C3278       C  0.81560393  0.11907896  0.71100841    -0.17900
C3279       C  0.82175004  0.13548702  0.71140691     0.10500
C3280       C  0.88138536  0.14265350  0.72801590    -0.06700
C3281       C  0.93512696  0.13311673  0.74280437    -0.17900
C3282       C  0.92953903  0.11670551  0.74217670     0.10500
S3283       S  0.75556584  0.14642532  0.68814256    -0.32900
S3284       S  0.99928593  0.10588184  0.76380688    -0.32900
H3285       H  0.94667205  0.09589342  0.77792442     0.28500
H3286       H  0.80783476  0.15762543  0.67786232     0.28500
H3287       H  0.76950648  0.11376337  0.69805383     0.19100
H3288       H  0.98149680  0.13853165  0.75544733     0.19100
C3289       C  0.92887821  0.06367029  0.31048306    -0.06700
C3290       C  0.87461848  0.05424748  0.32465490    -0.17900
C3291       C  0.87070788  0.05320747  0.35716808     0.10500
C3292       C  0.92096755  0.06214056  0.37616253    -0.06700
C3293       C  0.97427267  0.07175582  0.36177604    -0.17900
C3294       C  0.97829375  0.07271246  0.32938512     0.10500
S3295       S  0.80401261  0.03940680  0.37266444    -0.32900
S3296       S  0.04660224  0.08604175  0.31348907    -0.32900
H3297       H  0.00085208  0.09058901  0.28831711     0.28500
H3298       H  0.85374950  0.03359042  0.39542544     0.28500
H3299       H  0.83759487  0.04703720  0.31032095     0.19100
H3300       H  0.01227491  0.07886281  0.37586515     0.19100
C3301       C  0.88705816  0.06514605  0.56318506    -0.06700
C3302       C  0.93969753  0.05732169  0.58182715    -0.17900
C3303       C  0.92930978  0.05585821  0.61406254     0.10500
C3304       C  0.86505156  0.06272392  0.62829849    -0.06700
C3305       C  0.81285120  0.07067928  0.60949222    -0.17900
C3306       C  0.82361464  0.07213731  0.57739983     0.10500
S3307       S  0.99610871  0.04418432  0.63589815    -0.32900
S3308       S  0.75641819  0.08380906  0.55613986    -0.32900
H3309       H  0.80986518  0.09012284  0.53579411     0.28500
H3310       H  0.04808882  0.04170839  0.61181725     0.28500
H3311       H  0.98759570  0.05178651  0.57081487     0.19100
H3312       H  0.76417897  0.07621411  0.61996883     0.19100
C3313       C  0.78916714  0.19018491  0.38975982    -0.06700
C3314       C  0.84546023  0.18198816  0.37362622    -0.17900
C3315       C  0.84347685  0.18034613  0.34126755     0.10500
C3316       C  0.78324321  0.18708247  0.32424990    -0.06700
C3317       C  0.72803370  0.19568367  0.34057706    -0.17900
C3318       C  0.73091779  0.19747889  0.37293030     0.10500
S3319       S  0.91911729  0.16926523  0.32400445    -0.32900
S3320       S  0.66158396  0.20997348  0.39105440    -0.32900
H3321       H  0.70983957  0.21596713  0.41439223     0.28500
H3322       H  0.87426910  0.16157448  0.30193314     0.28500
H3323       H  0.89088934  0.17647920  0.38648829     0.19100
H3324       H  0.68280417  0.20139465  0.32797850     0.19100
C3325       C  0.76793559  0.23589235  0.49159428    -0.06700
C3326       C  0.81204617  0.24654177  0.47503752    -0.17900
C3327       C  0.79478702  0.26259933  0.47457117     0.10500
C3328       C  0.73332873  0.26850920  0.49200332    -0.06700
C3329       C  0.68940726  0.25784941  0.50875573    -0.17900
C3330       C  0.70648782  0.24174802  0.50912661     0.10500
S3331       S  0.85005058  0.27458147  0.44916977    -0.32900
S3332       S  0.65026520  0.22954330  0.53398670    -0.32900
H3333       H  0.71099110  0.22024283  0.54404109     0.28500
H3334       H  0.78781302  0.28323451  0.43841378     0.28500
H3335       H  0.85845800  0.24223013  0.46113090     0.19100
H3336       H  0.64279295  0.26215001  0.52255071     0.19100
C3337       C  0.84043247  0.18672494  0.57482165    -0.06700
C3338       C  0.79181869  0.19495772  0.59446968    -0.17900
C3339       C  0.80869330  0.19698355  0.62603369     0.10500
C3340       C  0.87489568  0.19010969  0.63878620    -0.06700
C3341       C  0.92235964  0.18149420  0.61902499    -0.17900
C3342       C  0.90536791  0.17956243  0.58744771     0.10500
S3343       S  0.74549910  0.20941177  0.64767453    -0.32900
S3344       S  0.96675851  0.16713865  0.56484979    -0.32900
H3345       H  0.91011226  0.16131795  0.54481731     0.28500
H3346       H  0.80343256  0.21686237  0.66426579     0.28500
H3347       H  0.74227937  0.20059216  0.58484753     0.19100
H3348       H  0.97204304  0.17579151  0.62836346     0.19100
C3349       C  0.84348679  0.14260048  0.47576339    -0.06700
C3350       C  0.90430765  0.13690339  0.45833216    -0.17900
C3351       C  0.91523764  0.12073391  0.45369798     0.10500
C3352       C  0.86506479  0.10985917  0.46723160    -0.06700
C3353       C  0.80341337  0.11553560  0.48397392    -0.17900
C3354       C  0.79308141  0.13164271  0.48900887     0.10500
S3355       S  0.99221297  0.11480346  0.42911783    -0.32900
S3356       S  0.71808866  0.13719724  0.51476370    -0.32900
H3357       H  0.76186268  0.14840306  0.53103712     0.28500
H3358       H  0.95462873  0.10175937  0.41590793     0.28500
H3359       H  0.94270855  0.14510027  0.44759891     0.19100
H3360       H  0.76494542  0.10733592  0.49463741     0.19100
C3361       C  0.84768892  0.31077577  0.09358573    -0.06700
C3362       C  0.90623148  0.31960542  0.10721830    -0.17900
C3363       C  0.91481501  0.32065194  0.13954634     0.10500
C3364       C  0.86315996  0.31284036  0.15881729    -0.06700
C3365       C  0.80353706  0.30435142  0.14541443    -0.17900
C3366       C  0.79610779  0.30292638  0.11311412     0.10500
S3367       S  0.98983737  0.33258953  0.15590043    -0.32900
S3368       S  0.72277626  0.29007073  0.09869139    -0.32900
H3369       H  0.76854173  0.28270710  0.07627490     0.28500
H3370       H  0.02766923  0.33538786  0.12784372     0.28500
H3371       H  0.94496054  0.32588186  0.09248305     0.19100
H3372       H  0.76471856  0.29810285  0.16021858     0.19100
C3373       C  0.92593347  0.23431327  0.98897993    -0.06700
C3374       C  0.86810597  0.23982096  0.96946433    -0.17900
C3375       C  0.84160024  0.25531000  0.97187944     0.10500
C3376       C  0.87277868  0.26552782  0.99465363    -0.06700
C3377       C  0.92994599  0.25993288  0.01436826    -0.17900
C3378       C  0.95720808  0.24455677  0.01160921     0.10500
S3379       S  0.77367013  0.26170703  0.94337845    -0.32900
S3380       S  0.71457780  0.24148336  0.03979028    -0.32900
H3381       H  0.76390468  0.23478464  0.01812299     0.28500
H3382       H  0.72395021  0.26823581  0.96510125     0.28500
H3383       H  0.84394230  0.23202955  0.95195746     0.19100
H3384       H  0.95465412  0.26773117  0.03173859     0.19100
C3385       C  0.67596034  0.43819808  0.09946446    -0.06700
C3386       C  0.72904696  0.44707658  0.11670793    -0.17900
C3387       C  0.72872891  0.44747298  0.14927952     0.10500
C3388       C  0.67475715  0.43861674  0.16541183    -0.06700
C3389       C  0.62137798  0.42985757  0.14842358    -0.17900
C3390       C  0.62123556  0.42952415  0.11588792     0.10500
S3391       S  0.79661532  0.45997369  0.16873983    -0.32900
S3392       S  0.88451078  0.41938078  0.09690801    -0.32900
H3393       H  0.85979969  0.43307619  0.08218629     0.28500
H3394       H  0.74723703  0.46523532  0.19206031     0.28500
H3395       H  0.77096281  0.45396103  0.10472089     0.19100
H3396       H  0.91478505  0.42287985  0.16082533     0.19100
C3397       C  0.92380118  0.51493545  0.00373646    -0.06700
C3398       C  0.89144452  0.50387199  0.98322381    -0.17900
C3399       C  0.91814787  0.48834257  0.98163042     0.10500
C3400       C  0.64722696  0.48246787  0.00032455    -0.06700
C3401       C  0.00931495  0.49448081  0.02213986    -0.17900
C3402       C  0.98301294  0.50999400  0.02367783     0.10500
S3403       S  0.53996677  0.47647913  0.95281895    -0.32900
S3404       S  0.02519849  0.52259128  0.05286373    -0.32900
H3405       H  0.95776609  0.53028360  0.06074226     0.28500
H3406       H  0.60350145  0.46757326  0.94442115     0.28500
H3407       H  0.84736588  0.50751807  0.96730264     0.19100
H3408       H  0.05375412  0.49086139  0.03791876     0.19100
C3409       C  0.75645663  0.39085098  0.01168554    -0.06700
C3410       C  0.81974874  0.38567318  0.99530123    -0.17900
C3411       C  0.83552063  0.36963795  0.99188306     0.10500
C3412       C  0.78780942  0.35836742  0.00580195    -0.06700
C3413       C  0.72589174  0.36364111  0.02309331    -0.17900
C3414       C  0.71059471  0.37968691  0.02661801     0.10500
S3415       S  0.91445688  0.36449786  0.96774988    -0.32900
S3416       S  0.63463929  0.38517206  0.05197953    -0.32900
H3417       H  0.67034789  0.39885490  0.06333274     0.28500
H3418       H  0.87548242  0.35262799  0.95124556     0.28500
H3419       H  0.85522836  0.39415641  0.98373555     0.19100
H3420       H  0.69004735  0.35521963  0.03463202     0.19100
C3421       C  0.71561577  0.31339001  0.59165272    -0.06700
C3422       C  0.77021648  0.32281817  0.60645655    -0.17900
C3423       C  0.77550143  0.32361216  0.63906472     0.10500
C3424       C  0.72462628  0.31490981  0.65727069    -0.06700
C3425       C  0.66987679  0.30559831  0.64257667    -0.17900
C3426       C  0.66586933  0.30443695  0.61016747     0.10500
S3427       S  0.84433258  0.33646871  0.65720962    -0.32900
S3428       S  0.59864239  0.29059848  0.59418255    -0.32900
H3429       H  0.64702170  0.28495248  0.57081495     0.28500
H3430       H  0.88145171  0.34077785  0.62977006     0.28500
H3431       H  0.80761660  0.32983318  0.59245004     0.19100
H3432       H  0.63200947  0.29861202  0.65649258     0.19100
C3433       C  0.70308430  0.26602279  0.74173548    -0.06700
C3434       C  0.63792196  0.26249134  0.72430104    -0.17900
C3435       C  0.61217695  0.24700705  0.72062915     0.10500
C3436       C  0.65252903  0.23468756  0.73460905    -0.06700
C3437       C  0.71860742  0.23814198  0.75150230    -0.17900
C3438       C  0.74401078  0.25367046  0.75544770     0.10500
S3439       S  0.52942268  0.24317216  0.69731423    -0.32900
S3440       S  0.82542219  0.25752801  0.77954104    -0.32900
H3441       H  0.84495944  0.24175426  0.78505602     0.28500
H3442       H  0.50909920  0.25895015  0.69234042     0.28500
H3443       H  0.60683905  0.27198913  0.71356207     0.19100
H3444       H  0.74934399  0.22861622  0.76230371     0.19100
C3445       C  0.77575917  0.31068927  0.84306726    -0.06700
C3446       C  0.72900767  0.32010904  0.86167180    -0.17900
C3447       C  0.74249914  0.32187366  0.89360046     0.10500
C3448       C  0.80212240  0.31354160  0.90774001    -0.06700
C3449       C  0.84959906  0.30432609  0.88927827    -0.17900
C3450       C  0.83694969  0.30270925  0.85729516     0.10500
S3451       S  0.68517862  0.33581141  0.91452670    -0.32900
S3452       S  0.89841243  0.28951950  0.83659853    -0.32900
H3453       H  0.83928733  0.28315208  0.81882909     0.28500
H3454       H  0.74118956  0.34034070  0.93607404     0.28500
H3455       H  0.68346858  0.32669082  0.85108249     0.19100
H3456       H  0.89513746  0.29781486  0.90005887     0.19100
C3457       C  0.84317586  0.43999944  0.66697893    -0.06700
C3458       C  0.78652426  0.43245943  0.64942588    -0.17900
C3459       C  0.78817617  0.43197436  0.61689691     0.10500
C3460       C  0.84792458  0.43942484  0.60109796    -0.06700
C3461       C  0.90356686  0.44730925  0.61889290    -0.17900
C3462       C  0.90149306  0.44780228  0.65139558     0.10500
S3463       S  0.71266714  0.42137712  0.59788091    -0.32900
S3464       S  0.97228070  0.45933744  0.67139237    -0.32900
H3465       H  0.92322755  0.46553306  0.69394381     0.28500
H3466       H  0.75679032  0.41431441  0.57500220     0.28500
H3467       H  0.74090914  0.42658842  0.66125339     0.19100
H3468       H  0.94885834  0.45343284  0.60738903     0.19100
C3469       C  0.86485600  0.48561530  0.76156757    -0.06700
C3470       C  0.81790372  0.49539580  0.74395832    -0.17900
C3471       C  0.83575395  0.51120141  0.73876344     0.10500
C3472       C  0.90205618  0.51782191  0.75224437    -0.06700
C3473       C  0.94836850  0.50805878  0.77033204    -0.17900
C3474       C  0.93067814  0.49217095  0.77530789     0.10500
S3475       S  0.77182946  0.52156415  0.71346873    -0.32900
S3476       S  0.99107930  0.48083275  0.80066895    -0.32900
H3477       H  0.04813571  0.49215229  0.80468575     0.28500
H3478       H  0.82469634  0.53172459  0.70098236     0.28500
H3479       H  0.76785474  0.49051881  0.73300570     0.19100
H3480       H  0.99808706  0.51302648  0.78129046     0.19100
C3481       C  0.78573384  0.43703522  0.85178208    -0.06700
C3482       C  0.75519608  0.42309748  0.86368491    -0.17900
C3483       C  0.73020797  0.42235135  0.89455141     0.10500
C3484       C  0.73558040  0.43584141  0.91384100    -0.06700
C3485       C  0.76400169  0.44983079  0.90151861    -0.17900
C3486       C  0.78990466  0.45053449  0.87096730     0.10500
S3487       S  0.69603443  0.40377739  0.90849823    -0.32900
S3488       S  0.82705518  0.46902070  0.85777972    -0.32900
H3489       H  0.87943893  0.46239693  0.83719791     0.28500
H3490       H  0.63117722  0.41016662  0.92217522     0.28500
H3491       H  0.75009409  0.41280119  0.84874603     0.19100
H3492       H  0.76695413  0.46026766  0.91604769     0.19100
C3493       C  0.78825441  0.39229911  0.75358447    -0.06700
C3494       C  0.73251150  0.38528856  0.77164171    -0.17900
C3495       C  0.72526020  0.36887758  0.77287438     0.10500
C3496       C  0.77479391  0.35922190  0.75538252    -0.06700
C3497       C  0.83058242  0.36628070  0.73736424    -0.17900
C3498       C  0.83726928  0.38264635  0.73597259     0.10500
S3499       S  0.65577955  0.36054518  0.79852625    -0.32900
S3500       S  0.90755818  0.39046275  0.71028358    -0.32900
H3501       H  0.86442305  0.40348957  0.70093487     0.28500
H3502       H  0.61798252  0.37466269  0.80558059     0.28500
H3503       H  0.69623463  0.39270979  0.78561754     0.19100
H3504       H  0.86785852  0.35900959  0.72349681     0.19100
C3505       C  0.72761973  0.81343543  0.06392885    -0.06700
C3506       C  0.79484439  0.80784562  0.07699731    -0.17900
C3507       C  0.80166480  0.80514299  0.10902834     0.10500
C3508       C  0.74088065  0.80883204  0.12915683    -0.06700
C3509       C  0.67416537  0.81466628  0.11598121    -0.17900
C3510       C  0.66653861  0.81692676  0.08386589     0.10500
S3511       S  0.88833292  0.79628994  0.12200317    -0.32900
S3512       S  0.01960015  0.84638814  0.07143245    -0.32900
H3513       H  0.05891093  0.84623970  0.04318935     0.28500
H3514       H  0.85212643  0.78449779  0.13914963     0.28500
H3515       H  0.84144649  0.80482522  0.06193775     0.19100
H3516       H  0.62763127  0.81765426  0.13101891     0.19100
C3517       C  0.97156188  0.73185213  0.22523236    -0.06700
C3518       C  0.03003321  0.73652309  0.24538947    -0.17900
C3519       C  0.05977315  0.75176780  0.24464446     0.10500
C3520       C  0.03291612  0.76260260  0.22248787    -0.06700
C3521       C  0.97631672  0.75772354  0.20148486    -0.17900
C3522       C  0.94547373  0.74253485  0.20259569     0.10500
S3523       S  0.82344490  0.75444072  0.26134032    -0.32900
S3524       S  0.87723896  0.73714148  0.17320931    -0.32900
H3525       H  0.82300205  0.73192180  0.19425764     0.28500
H3526       H  0.83586396  0.73925540  0.27304167     0.28500
H3527       H  0.05081597  0.72838654  0.26272867     0.19100
H3528       H  0.95544752  0.76587947  0.18420304     0.19100
C3529       C  0.89219609  0.93393068  0.12187607    -0.06700
C3530       C  0.94778086  0.94408037  0.11085321    -0.17900
C3531       C  0.95545538  0.94691425  0.07888457     0.10500
C3532       C  0.90641781  0.93929259  0.05731846    -0.06700
C3533       C  0.85156370  0.92895238  0.06853759    -0.17900
C3534       C  0.84437265  0.92611475  0.10036779     0.10500
S3535       S  0.02463777  0.96111765  0.06652654    -0.32900
S3536       S  0.77405702  0.91210971  0.11203879    -0.32900
H3537       H  0.81428174  0.90667590  0.13812015     0.28500
H3538       H  0.06113744  0.96306122  0.09546311     0.28500
H3539       H  0.98298657  0.95034000  0.12749617     0.19100
H3540       H  0.81476281  0.92277226  0.05234639     0.19100
C3541       C  0.89272144  0.98125445  0.21660022    -0.06700
C3542       C  0.84212425  0.99160330  0.20215345    -0.17900
C3543       C  0.85596600  0.00781883  0.20080717     0.10500
C3544       C  0.92111068  0.01430829  0.21534413    -0.06700
C3545       C  0.97159801  0.00398634  0.22979073    -0.17900
C3546       C  0.95873968  0.98774800  0.23067217     0.10500
S3547       S  0.79054704  0.01911780  0.17804970    -0.32900
S3548       S  0.03051352  0.97655726  0.25038593    -0.32900
H3549       H  0.98270819  0.96569745  0.26392730     0.28500
H3550       H  0.84713955  0.02792161  0.16407434     0.28500
H3551       H  0.79230481  0.98695994  0.19064056     0.19100
H3552       H  0.02179929  0.00863299  0.24101114     0.19100
C3553       C  0.79817412  0.85437013  0.21912614    -0.06700
C3554       C  0.74549925  0.86328950  0.20222356    -0.17900
C3555       C  0.75224835  0.87967927  0.19947844     0.10500
C3556       C  0.81356964  0.88747280  0.21403355    -0.06700
C3557       C  0.86652733  0.87844355  0.23072904    -0.17900
C3558       C  0.85883218  0.86214641  0.23387197     0.10500
S3559       S  0.68380571  0.89016061  0.17626444    -0.32900
S3560       S  0.92505509  0.85222393  0.25883891    -0.32900
H3561       H  0.87188317  0.84205287  0.27204808     0.28500
H3562       H  0.63563744  0.87737612  0.16994672     0.28500
H3563       H  0.69895574  0.85730114  0.19083947     0.19100
H3564       H  0.91340037  0.88418654  0.24241537     0.19100
C3565       C  0.83332893  0.81591771  0.56928732    -0.06700
C3566       C  0.89103205  0.82520159  0.58240453    -0.17900
C3567       C  0.90242740  0.82606793  0.61462222     0.10500
C3568       C  0.85529877  0.81743723  0.63452497    -0.06700
C3569       C  0.79589250  0.80866219  0.62174425    -0.17900
C3570       C  0.78423961  0.80779705  0.58954311     0.10500
S3571       S  0.97711583  0.83862267  0.62891237    -0.32900
S3572       S  0.70948038  0.79509847  0.57617103    -0.32900
H3573       H  0.67094809  0.80717823  0.56080909     0.28500
H3574       H  0.93950641  0.84340069  0.65608172     0.28500
H3575       H  0.92792385  0.83183039  0.56742412     0.19100
H3576       H  0.75962506  0.80200081  0.63694507     0.19100
C3577       C  0.86214603  0.76657892  0.47991182    -0.06700
C3578       C  0.91995285  0.76076991  0.46087316    -0.17900
C3579       C  0.94510953  0.74520937  0.46308460     0.10500
C3580       C  0.91231256  0.73505062  0.48501842    -0.06700
C3581       C  0.85422058  0.74084725  0.50394493    -0.17900
C3582       C  0.82839081  0.75634171  0.50142277     0.10500
S3583       S  0.01494655  0.73877173  0.43569785    -0.32900
S3584       S  0.75478679  0.76246780  0.52729415    -0.32900
H3585       H  0.70580220  0.76679489  0.50306822     0.28500
H3586       H  0.06730954  0.73472424  0.45888698     0.28500
H3587       H  0.94599759  0.76845958  0.44408570     0.19100
H3588       H  0.82783958  0.73315598  0.52063708     0.19100
C3589       C  0.77902838  0.80853565  0.31676874    -0.06700
C3590       C  0.72588600  0.81676737  0.33466070    -0.17900
C3591       C  0.73396905  0.81836446  0.36697740     0.10500
C3592       C  0.79588293  0.81133433  0.38230992    -0.06700
C3593       C  0.84958559  0.80331414  0.36459414    -0.17900
C3594       C  0.84163869  0.80165473  0.33231073     0.10500
S3595       S  0.66580027  0.83035423  0.38696858    -0.32900
S3596       S  0.91191643  0.78991777  0.31302863    -0.32900
H3597       H  0.85855172  0.78150057  0.29545748     0.28500
H3598       H  0.71777929  0.83718330  0.40790052     0.28500
H3599       H  0.67862712  0.82243776  0.32332116     0.19100
H3600       H  0.89702279  0.79780851  0.37615459     0.19100
C3601       C  0.68601115  0.93931399  0.55193651    -0.06700
C3602       C  0.73943068  0.93015146  0.56747159    -0.17900
C3603       C  0.74104290  0.92924790  0.59975317     0.10500
C3604       C  0.68936708  0.93803481  0.61765024    -0.06700
C3605       C  0.63591990  0.94738661  0.60187397    -0.17900
C3606       C  0.63354007  0.94807920  0.56929142     0.10500
S3607       S  0.80712355  0.91575747  0.61599195    -0.32900
S3608       S  0.56474707  0.96078570  0.55148124    -0.32900
H3609       H  0.61019024  0.96539692  0.52651556     0.28500
H3610       H  0.75080027  0.90830098  0.63336798     0.28500
H3611       H  0.77967377  0.92330324  0.55417104     0.19100
H3612       H  0.59587572  0.95434355  0.61498108     0.19100
C3613       C  0.66062703  0.98473474  0.45808286    -0.06700
C3614       C  0.70153542  0.99434817  0.47884745    -0.17900
C3615       C  0.02145229  0.01103070  0.48649447     0.10500
C3616       C  0.95851133  0.01725650  0.47038151    -0.06700
C3617       C  0.91822575  0.00745611  0.44982078    -0.17900
C3618       C  0.94027890  0.99188036  0.44433089     0.10500
S3619       S  0.07400537  0.02211528  0.51532321    -0.32900
S3620       S  0.88901044  0.98107749  0.41473720    -0.32900
H3621       H  0.60801869  0.97247003  0.40080508     0.28500
H3622       H  0.01155027  0.03050972  0.52663035     0.28500
H3623       H  0.74851242  0.98948066  0.49178167     0.19100
H3624       H  0.87105838  0.01217205  0.43679097     0.19100
C3625       C  0.74993564  0.93609837  0.36746811    -0.06700
C3626       C  0.81361752  0.94445299  0.35764526    -0.17900
C3627       C  0.83587767  0.94444251  0.32668382     0.10500
C3628       C  0.79496248  0.93570571  0.30436181    -0.06700
C3629       C  0.73065583  0.92740775  0.31383037    -0.17900
C3630       C  0.70848528  0.92726308  0.34515159     0.10500
S3631       S  0.91313343  0.95693933  0.31686069    -0.32900
S3632       S  0.62980241  0.91499543  0.35513270    -0.32900
H3633       H  0.66511689  0.90858255  0.38153832     0.28500
H3634       H  0.87343289  0.96368861  0.29185797     0.28500
H3635       H  0.84597885  0.95144140  0.37415911     0.19100
H3636       H  0.69860744  0.92064301  0.29683465     0.19100
C3637       C  0.75247717  0.89234139  0.46797646    -0.06700
C3638       C  0.81323778  0.88570095  0.45201436    -0.17900
C3639       C  0.82599860  0.86947080  0.45222162     0.10500
C3640       C  0.77847144  0.85955208  0.46972291    -0.06700
C3641       C  0.71809260  0.86626297  0.48597314    -0.17900
C3642       C  0.70513550  0.88250214  0.48559155     0.10500
S3643       S  0.90084260  0.86218465  0.42797280    -0.32900
S3644       S  0.62978923  0.89000705  0.50937723    -0.32900
H3645       H  0.66782896  0.90383015  0.51850413     0.28500
H3646       H  0.85969288  0.84916689  0.41664177     0.28500
H3647       H  0.84928414  0.89314181  0.43819210     0.19100
H3648       H  0.68186485  0.85886529  0.49979061     0.19100
loop_ 
_geom_bond_atom_site_label_1 
_geom_bond_atom_site_label_2 
_geom_bond_distance 
_geom_bond_site_symmetry_2 
_ccdc_geom_bond_type 
O1            V9   1.920   1_455  S
O1           C11   1.270       .  A
O2            V9   1.917       .  S
O2           C12   1.268   1_655  A
O3            V9   1.890       .  S
O3           C13   1.262   1_655  A
O4            V9   1.891   1_455  S
O4           C14   1.261       .  A
O5           V10   1.909       .  S
O5           C14   1.267       .  A
O6           V10   1.911       .  S
O6           C13   1.268       .  A
O7           V10   1.875       .  S
O7           C12   1.259       .  A
O8           V10   1.881       .  S
O8           C11   1.261       .  A
V9           V10   2.086   1_655  T
C11        C1193   1.487       .  S
C12        C1169   1.476       .  S
C13        C1181   1.484       .  S
C14        C1205   1.475       .  S
O15          V23   1.903       .  S
O15          C25   1.266       .  A
O16          V23   1.905       .  S
O16          C26   1.268       .  A
O17          V23   1.892       .  S
O17          C27   1.262       .  A
O18          V23   1.892       .  S
O18          C28   1.262       .  A
O19          V24   1.910       .  S
O19          C28   1.268       .  A
O20          V24   1.911       .  S
O20          C27   1.267       .  A
O21          V24   1.892       .  S
O21          C26   1.260       .  A
O22          V24   1.892       .  S
O22          C25   1.262       .  A
V23          V24   2.086       .  T
C25        C1160   1.475       .  S
C26        C1133   1.486       .  S
C27        C1145   1.481       .  S
C28        C1208   1.482       .  S
O29          V37   1.920       .  S
O29          C39   1.271       .  A
O30          V37   1.920       .  S
O30          C40   1.270       .  A
O31          V37   1.890       .  S
O31          C41   1.259       .  A
O32          V37   1.891       .  S
O32          C42   1.263       .  A
O33          V38   1.915       .  S
O33          C42   1.269       .  A
O34          V38   1.917       .  S
O34          C41   1.271       .  A
O35          V38   1.887       .  S
O35          C40   1.260       .  A
O36          V38   1.891       .  S
O36          C39   1.260       .  A
V37          V38   2.083       .  T
C39        C1196   1.481       .  S
C40        C1097   1.483       .  S
C41        C1109   1.495       .  S
C42        C1124   1.494       .  S
O43          V51   1.909       .  S
O43          C53   1.270       .  A
O44          V51   1.904       .  S
O44          C54   1.267       .  A
O45          V51   1.889       .  S
O45          C55   1.260       .  A
O46          V51   1.883       .  S
O46          C56   1.259       .  A
O47          V52   1.923       .  S
O47          C56   1.271       .  A
O48          V52   1.925       .  S
O48          C55   1.271       .  A
O49          V52   1.890       .  S
O49          C54   1.261       .  A
O50          V52   1.887       .  S
O50          C53   1.259       .  A
V51          V52   2.084       .  T
C53        C1157   1.485       .  S
C54        C1076   1.471       .  S
C55        C3520   1.484       .  S
C56        C1121   1.482       .  S
O57          V65   1.910       .  S
O57          C67   1.268       .  A
O58          V65   1.909       .  S
O58          C68   1.267       .  A
O59          V65   1.890       .  S
O59          C69   1.261       .  A
O60          V65   1.889       .  S
O60          C70   1.261       .  A
O61          V66   1.905       .  S
O61          C70   1.267       .  A
O62          V66   1.907       .  S
O62          C69   1.268       .  A
O63          V66   1.885       .  S
O63          C68   1.260       .  A
O64          V66   1.889       .  S
O64          C67   1.261       .  A
V65          V66   2.086       .  T
C67        C1049   1.482       .  S
C68        C1025   1.477       .  S
C69        C1037   1.487       .  S
C70        C1061   1.475       .  S
O71          V79   1.910       .  S
O71          C81   1.270       .  A
O72          V79   1.908   1_655  S
O72          C82   1.267   1_655  A
O73          V79   1.879   1_655  S
O73          C83   1.258   1_655  A
O74          V79   1.879       .  S
O74          C84   1.258       .  A
O75          V80   1.913       .  S
O75          C84   1.269       .  A
O76          V80   1.917       .  S
O76          C83   1.269       .  A
O77          V80   1.882       .  S
O77          C82   1.259       .  A
O78          V80   1.881       .  S
O78          C81   1.258       .  A
V79          V80   2.086       .  T
C81        C1013   1.483       .  S
C82         C992   1.471       .  S
C83        C1001   1.472       .  S
C84        C1064   1.482       .  S
O85          V93   1.911   1_456  S
O85          C95   1.267       .  A
O86          V93   1.911       .  S
O86          C96   1.267   1_655  A
O87          V93   1.897       .  S
O87          C97   1.263   1_655  A
O88          V93   1.889   1_455  S
O88          C98   1.261       .  A
O89          V94   1.911       .  S
O89          C98   1.267       .  A
O90          V94   1.911       .  S
O90          C97   1.268       .  A
O91          V94   1.886       .  S
O91          C96   1.261       .  A
O92          V94   1.888   1_556  S
O92          C95   1.262       .  A
V93          V94   2.083   1_655  T
C95        C1052   1.494       .  S
C96         C953   1.491       .  S
C97         C968   1.485   1_455  S
C98         C977   1.476       .  S
O99         V107   1.911       .  S
O99         C109   1.269       .  A
O100        V107   1.916   1_556  S
O100        C110   1.269       .  A
O101        V107   1.881       .  S
O101        C111   1.258       .  A
O102        V107   1.881   1_556  S
O102        C112   1.259       .  A
O103        V108   1.908       .  S
O103        C112   1.268       .  A
O104        V108   1.905   1_554  S
O104        C111   1.268       .  A
O105        V108   1.887       .  S
O105        C110   1.261       .  A
O106        V108   1.888       .  S
O106        C109   1.260   1_556  A
V107        V108   2.086   1_554  T
C109        C980   1.483       .  S
C110        C944   1.481       .  S
C111        C929   1.479       .  S
C112       C1016   1.472       .  S
O113        V121   1.912       .  S
O113        C123   1.268       .  A
O114        V121   1.912       .  S
O114        C124   1.269       .  A
O115        V121   1.884       .  S
O115        C125   1.260       .  A
O116        V121   1.885       .  S
O116        C126   1.259       .  A
O117        V122   1.916       .  S
O117        C126   1.271       .  A
O118        V122   1.913       .  S
O118        C125   1.269       .  A
O119        V122   1.885       .  S
O119        C124   1.260       .  A
O120        V122   1.884       .  S
O120        C123   1.259       .  A
V121        V122   2.086       .  T
C123        C905   1.475       .  S
C124        C881   1.477       .  S
C125        C917   1.482       .  S
C126        C893   1.484       .  S
O127        V135   1.911       .  S
O127        C137   1.267       .  A
O128        V135   1.906       .  S
O128        C138   1.268       .  A
O129        V135   1.890       .  S
O129        C139   1.261       .  A
O130        V135   1.889       .  S
O130        C140   1.261       .  A
O131        V136   1.909       .  S
O131        C140   1.268       .  A
O132        V136   1.906       .  S
O132        C139   1.267       .  A
O133        V136   1.890       .  S
O133        C138   1.260       .  A
O134        V136   1.892       .  S
O134        C137   1.262       .  A
V135        V136   2.087       .  T
C137        C869   1.479       .  S
C138        C860   1.483       .  S
C139        C920   1.476       .  S
C140       C1184   1.480       .  S
O141        V149   1.915       .  S
O141        C151   1.269       .  A
O142        V149   1.919       .  S
O142        C152   1.269       .  A
O143        V149   1.889       .  S
O143        C153   1.260       .  A
O144        V149   1.890       .  S
O144        C154   1.261       .  A
O145        V150   1.916       .  S
O145        C154   1.270       .  A
O146        V150   1.914       .  S
O146        C153   1.270       .  A
O147        V150   1.888       .  S
O147        C152   1.261       .  A
O148        V150   1.887       .  S
O148        C151   1.261       .  A
V149        V150   2.084       .  T
C151        C845   1.487       .  S
C152        C833   1.482       .  S
C153        C872   1.488       .  S
C154        C824   1.493       .  S
O155        V163   1.915       .  S
O155        C165   1.269       .  A
O156        V163   1.919       .  S
O156        C166   1.270       .  A
O157        V163   1.882       .  S
O157        C167   1.258       .  A
O158        V163   1.882       .  S
O158        C168   1.259       .  A
O159        V164   1.910       .  S
O159        C168   1.268       .  A
O160        V164   1.912       .  S
O160        C167   1.270       .  A
O161       V2596   1.881   1_455  S
O161       C2598   1.258   1_455  A
O162        V164   1.885       .  S
O162        C165   1.259       .  A
V163        V164   2.086       .  T
V164       O1377   1.886       .  S
C165        C848   1.479       .  S
C166       O1377   1.260       .  A
C166       C2220   1.482       .  S
C167        C908   1.485       .  S
C168        C809   1.472       .  S
O169        V177   1.921       .  S
O169        C179   1.271   1_556  A
O170        V177   1.922       .  S
O170        C180   1.270       .  A
O171        V177   1.893       .  S
O171        C181   1.262       .  A
O172        V177   1.889   1_554  S
O172        C182   1.263       .  A
O173        V178   1.905       .  S
O173        C182   1.266       .  A
O174        V178   1.907   1_556  S
O174        C181   1.268       .  A
O175        V178   1.879       .  S
O175        C180   1.260   1_554  A
O176        V178   1.882       .  S
O176        C179   1.259       .  A
V177        V178   2.084   1_556  T
C179        C965   1.486       .  S
C180        C797   1.484       .  S
C181        C776   1.487       .  S
C182        C785   1.490       .  S
O183        V191   1.906       .  S
O183        C193   1.268       .  A
O184        V191   1.911       .  S
O184        C194   1.267       .  A
O185        V191   1.883   1_554  S
O185        C195   1.260       .  A
O186        V191   1.887       .  S
O186        C196   1.261       .  A
O187        V192   1.905       .  S
O187        C196   1.267       .  A
O188        V192   1.906   1_554  S
O188        C195   1.266       .  A
O189        V192   1.897       .  S
O189        C194   1.264       .  A
O190        V192   1.900       .  S
O190        C193   1.263       .  A
V191        V192   2.084       .  T
C193        C800   1.492       .  S
C194        C752   1.486       .  S
C195        C761   1.479       .  S
C196        C740   1.479       .  S
O197        V205   1.904       .  S
O197        C207   1.268       .  A
O198        V205   1.908       .  S
O198        C208   1.269       .  A
O199        V205   1.886       .  S
O199        C209   1.261       .  A
O200        V205   1.885       .  S
O200        C210   1.260       .  A
O201        V206   1.909       .  S
O201        C210   1.267       .  A
O202        V206   1.909       .  S
O202        C209   1.268       .  A
O203        V206   1.887       .  S
O203        C208   1.260       .  A
O204        V206   1.887       .  S
O204        C207   1.260       .  A
V205        V206   2.086       .  T
C207        C725   1.478       .  S
C208        C716   1.486       .  S
C209        C788   1.478       .  S
C210        C701   1.472       .  S
O211        V219   1.910       .  S
O211        C221   1.267       .  A
O212        V219   1.909       .  S
O212        C222   1.267       .  A
O213        V219   1.891       .  S
O213        C223   1.263       .  A
O214        V219   1.891       .  S
O214        C224   1.261       .  A
O215        V220   1.898       .  S
O215        C224   1.265       .  A
O216        V220   1.898       .  S
O216        C223   1.263       .  A
O217        V220   1.889       .  S
O217        C222   1.262       .  A
O218        V220   1.890       .  S
O218        C221   1.262       .  A
V219        V220   2.084       .  T
C221       C1085   1.476       .  S
C222        C728   1.473       .  S
C223        C689   1.487       .  S
C224        C764   1.468       .  S
O225        V233   1.918       .  S
O225       C2667   1.270       .  A
O226        V233   1.916       .  S
O226        C236   1.270       .  A
O227        V233   1.888       .  S
O227        C237   1.259       .  A
O228       V1449   1.890       .  S
O228        C238   1.261       .  A
O229        V234   1.917       .  S
O229        C238   1.270       .  A
O230        V234   1.912       .  S
O230       C1453   1.269       .  A
O231        V234   1.890       .  S
O231       C1452   1.262       .  A
O232        V234   1.886       .  S
O232        C235   1.260       .  A
V233       O2660   1.888       .  S
V233       V2666   2.084   1_455  T
V234       V1449   2.083       .  T
C235       O1441   1.270       .  A
C235        C665   1.480       .  S
C236       O2663   1.260   1_455  A
C236       C1172   1.494       .  S
C237       O2662   1.269   1_455  A
C237        C836   1.479       .  S
C238        C680   1.490       .  S
O239        V247   1.904       .  S
O239        C249   1.266       .  A
O240        V247   1.905       .  S
O240        C250   1.265       .  A
O241        V247   1.892       .  S
O241        C251   1.263       .  A
O242        V247   1.890       .  S
O242        C252   1.261       .  A
O243        V248   1.907       .  S
O243        C252   1.266       .  A
O244        V248   1.910       .  S
O244        C251   1.267       .  A
O245        V248   1.893       .  S
O245        C250   1.263       .  A
O246        V248   1.892       .  S
O246        C249   1.263       .  A
V247        V248   2.084       .  T
C249        C653   1.488       .  S
C250       C1136   1.474       .  S
C251        C641   1.487       .  S
C252        C677   1.475       .  S
O253        V261   1.913       .  S
O253        C263   1.269       .  A
O254        V261   1.911   1_554  S
O254        C264   1.269       .  A
O255        V261   1.893       .  S
O255        C265   1.261       .  A
O256        V261   1.888       .  S
O256        C266   1.260       .  A
O257        V262   1.921       .  S
O257        C266   1.270       .  A
O258        V262   1.920       .  S
O258        C265   1.271       .  A
O259        V262   1.897   1_554  S
O259        C264   1.262       .  A
O260        V262   1.897       .  S
O260        C263   1.263       .  A
V261        V262   2.083       .  T
C263        C668   1.493       .  S
C264       C1100   1.494       .  S
C265        C617   1.492       .  S
C266        C629   1.487       .  S
O267        V275   1.913       .  S
O267        C277   1.268       .  A
O268       V2707   1.911   1_554  S
O268       C2710   1.267       .  A
O269       V2707   1.892       .  S
O269       C2711   1.260       .  A
O270        V275   1.900       .  S
O270        C280   1.264       .  A
O271        V276   1.909       .  S
O271        C280   1.268       .  A
O272        V276   1.912       .  S
O272        C279   1.268       .  A
O273        V276   1.886   1_554  S
O273        C278   1.259       .  A
O274        V276   1.889       .  S
O274        C277   1.262       .  A
V275       O1484   1.915   1_556  S
V275       O1485   1.897       .  S
V275        V276   2.085       .  T
C277        C656   1.480       .  S
C278       O1484   1.268       .  A
C278       C2289   1.469       .  S
C279       O1485   1.262       .  A
C279       C1965   1.477       .  S
C280        C632   1.490       .  S
O281       V2721   1.914       .  S
O281       C2723   1.267   1_455  A
O282        V289   1.906       .  S
O282        C292   1.267       .  A
O283       V2721   1.898       .  S
O283       C2725   1.262   1_455  A
O284        V289   1.890       .  S
O284        C294   1.261       .  A
O285        V290   1.911       .  S
O285        C294   1.267       .  A
O286        V290   1.913       .  S
O286        C293   1.268       .  A
O287        V290   1.901       .  S
O287        C292   1.262       .  A
O288        V290   1.901       .  S
O288        C291   1.265       .  A
V289       O1497   1.904       .  S
V289       O1499   1.898       .  S
V289        V290   2.084       .  T
C291       O1497   1.265       .  A
C291        C605   1.493       .  S
C292       C1040   1.492       .  S
C293       O1499   1.262       .  A
C293        C593   1.482       .  S
C294        C773   1.476       .  S
O295        V303   1.911       .  S
O295        C305   1.268       .  A
O296        V303   1.909       .  S
O296        C306   1.267       .  A
O297        V303   1.892       .  S
O297        C307   1.261       .  A
O298        V303   1.890       .  S
O298        C308   1.262       .  A
O299        V304   1.912       .  S
O299        C308   1.269       .  A
O300       V1520   1.909       .  S
O300       C1523   1.267       .  A
O301        V304   1.879       .  S
O301        C306   1.260       .  A
O302       V1520   1.885       .  S
O302       C1521   1.262       .  A
V303        V304   2.085       .  T
V304       O2732   1.913   1_455  S
V304       O2734   1.882   1_455  S
C305       O2734   1.260   1_455  A
C305        C581   1.483       .  S
C306        C737   1.470       .  S
C307       O2732   1.268   1_455  A
C307       C3040   1.483       .  S
C308        C644   1.484       .  S
O309        V317   1.911       .  S
O309        C319   1.267       .  A
O310       V1533   1.916       .  S
O310        C320   1.269       .  A
O311        V317   1.887       .  S
O311        C321   1.260       .  A
O312       V1533   1.880       .  S
O312       C1538   1.261       .  A
O313        V318   1.916       .  S
O313        C322   1.268       .  A
O314        V318   1.911       .  S
O314        C321   1.269       .  A
O315        V318   1.890       .  S
O315       C2752   1.261       .  A
O316        V318   1.894       .  S
O316        C319   1.263       .  A
V317       O2742   1.909   1_455  S
V317       O2744   1.884   1_455  S
V317        V318   2.084       .  T
C319        C560   1.488       .  S
C320       O1531   1.259       .  A
C320        C572   1.479       .  S
C321        C704   1.482       .  S
C322       O2744   1.262   1_455  A
C322        C596   1.485       .  S
O323        V331   1.910       .  S
O323        C333   1.268       .  A
O324        V331   1.913       .  S
O324        C334   1.268       .  A
O325        V331   1.886       .  S
O325        C335   1.260       .  A
O326        V331   1.880       .  S
O326        C336   1.259       .  A
O327        V332   1.908       .  S
O327        C336   1.267       .  A
O328        V332   1.907       .  S
O328        C335   1.267       .  A
O329        V332   1.886       .  S
O329        C334   1.261       .  A
O330        V332   1.887       .  S
O330        C333   1.262       .  A
V331        V332   2.087       .  T
C333        C569   1.482       .  S
C334       C1148   1.482       .  S
C335        C584   1.472       .  S
C336        C692   1.470       .  S
O337        V345   1.909       .  S
O337        C347   1.268       .  A
O338        V345   1.908       .  S
O338        C348   1.266       .  A
O339        V345   1.890       .  S
O339        C349   1.263       .  A
O340        V345   1.891       .  S
O340        C350   1.262       .  A
O341        V346   1.911       .  S
O341        C350   1.268       .  A
O342        V346   1.912       .  S
O342        C349   1.268       .  A
O343        V346   1.892       .  S
O343        C348   1.263       .  A
O344        V346   1.894       .  S
O344        C347   1.263       .  A
V345        V346   2.084       .  T
C347        C533   1.488       .  S
C348       C1028   1.490       .  S
C349        C557   1.487       .  S
C350        C545   1.482       .  S
O351       V1575   1.907       .  S
O351        C361   1.268       .  A
O352        V359   1.912       .  S
O352        C362   1.268   1_655  A
O353        V359   1.879       .  S
O353        C363   1.258   1_655  A
O354       V1575   1.878       .  S
O354       C1580   1.260       .  A
O355        V360   1.912       .  S
O355        C364   1.267   1_455  A
O356        V360   1.911       .  S
O356        C363   1.269       .  A
O357        V360   1.890       .  S
O357        C362   1.261       .  A
O358        V360   1.894       .  S
O358       C2793   1.262   1_455  A
V359       O2783   1.907       .  S
V359       O2786   1.877       .  S
V359        V360   2.084   1_655  T
C361       O1574   1.261       .  A
C361        C548   1.485       .  S
C362        C896   1.485       .  S
C363        C989   1.481       .  S
C364       O2786   1.261       .  A
C364        C521   1.486       .  S
O365        V373   1.915       .  S
O365       C2807   1.269   1_455  A
O366        V373   1.911       .  S
O366        C376   1.268       .  A
O367        V373   1.889       .  S
O367        C377   1.261       .  A
O368        V373   1.891       .  S
O368       C2810   1.261   1_455  A
O369        V374   1.904       .  S
O369        C378   1.267       .  A
O370        V374   1.908       .  S
O370       C1593   1.268       .  A
O371        V374   1.888       .  S
O371       C1592   1.261       .  A
O372        V374   1.891       .  S
O372        C375   1.261       .  A
V373       V2806   2.087   1_455  T
V374       V1589   2.086       .  T
C375       O1581   1.269       .  A
C375        C536   1.481       .  S
C376       O2803   1.261   1_455  A
C376        C956   1.476       .  S
C377       O2802   1.268   1_455  A
C377        C713   1.485       .  S
C378       O1584   1.262       .  A
C378        C509   1.476       .  S
O379        V387   1.912       .  S
O379        C389   1.268       .  A
O380        V387   1.908       .  S
O380        C390   1.267       .  A
O381        V387   1.887       .  S
O381        C391   1.259       .  A
O382        V387   1.884       .  S
O382        C392   1.260       .  A
O383       V2820   1.906       .  S
O383       C2824   1.267       .  A
O384        V388   1.920       .  S
O384        C391   1.271       .  A
O385        V388   1.879       .  S
O385        C390   1.258       .  A
O386        V388   1.884       .  S
O386        C389   1.258       .  A
V387        V388   2.087       .  T
V388       O1599   1.915       .  S
C389        C524   1.470       .  S
C390        C932   1.468       .  S
C391        C497   1.491       .  S
C392       O1599   1.269       .  A
C392        C512   1.482       .  S
O393        V401   1.919   1_554  S
O393        C403   1.269       .  A
O394        V401   1.913       .  S
O394        C404   1.269       .  A
O395        V401   1.885       .  S
O395        C405   1.260       .  A
O396        V401   1.892       .  S
O396        C406   1.261       .  A
O397        V402   1.922       .  S
O397        C406   1.271       .  A
O398        V402   1.912       .  S
O398        C405   1.269       .  A
O399        V402   1.886       .  S
O399        C404   1.259       .  A
O400        V402   1.883   1_554  S
O400        C403   1.262       .  A
V401        V402   2.084       .  T
C403        C476   1.494       .  S
C404        C821   1.477       .  S
C405        C485   1.481       .  S
C406        C620   1.494       .  S
O407        V415   1.915   1_554  S
O407        C417   1.269   1_655  A
O408        V415   1.908       .  S
O408        C418   1.269       .  A
O409        V415   1.891       .  S
O409        C419   1.262   1_655  A
O410       V1631   1.890       .  S
O410       C1636   1.261       .  A
O411        V416   1.908       .  S
O411        C420   1.267   1_455  A
O412        V416   1.905       .  S
O412        C419   1.266       .  A
O413        V416   1.886       .  S
O413        C418   1.260   1_455  A
O414        V416   1.885   1_554  S
O414        C417   1.260       .  A
V415       O2842   1.892       .  S
V415        V416   2.087   1_655  T
C417        C461   1.473       .  S
C418        C812   1.485       .  S
C419        C488   1.473       .  S
C420       O2842   1.261       .  A
C420       C3373   1.475       .  S
O421        V429   1.914       .  S
O421       C1647   1.269       .  A
O422        V429   1.913       .  S
O422        C432   1.268       .  A
O423        V429   1.893       .  S
O423       C1649   1.262       .  A
O424        V429   1.896       .  S
O424        C434   1.261       .  A
O425       V1646   1.911       .  S
O425        C434   1.270       .  A
O426        V430   1.907       .  S
O426        C433   1.268   1_455  A
O427       V1646   1.882       .  S
O427        C432   1.260       .  A
O428        V430   1.887       .  S
O428        C431   1.259       .  A
V429       V1646   2.086       .  T
V430       O2857   1.911       .  S
V430       O2859   1.884       .  S
V430       V2861   2.085   1_455  T
C431       O2853   1.271   1_455  A
C431        C473   1.482       .  S
C432        C857   1.473       .  S
C433       O2855   1.262       .  A
C433        C449   1.485   1_655  S
C434       C1112   1.496       .  S
O435        V443   1.911       .  S
O435        C445   1.267       .  A
O436        V443   1.907       .  S
O436        C446   1.268       .  A
O437        V443   1.890       .  S
O437        C447   1.262       .  A
O438        V443   1.891       .  S
O438        C448   1.263       .  A
O439        V444   1.911       .  S
O439        C448   1.267       .  A
O440        V444   1.911       .  S
O440        C447   1.268       .  A
O441        V444   1.895       .  S
O441        C446   1.262       .  A
O442        V444   1.895       .  S
O442        C445   1.263       .  A
V443        V444   2.083       .  T
C445        C452   1.481       .  S
C446        C500   1.487       .  S
C447        C464   1.488       .  S
C448        C884   1.490       .  S
C449        C450   1.403       .  A
C449        C454   1.420   1_455  A
C450        C451   1.397       .  A
C450        H459   1.084       .  S
C451        C452   1.413       .  A
C451        S455   1.798       .  S
C452        C453   1.403   1_455  A
C453        C454   1.402       .  A
C453        H460   1.084       .  S
C454       S2888   1.803       .  S
S455        H458   1.407       .  S
S456       C1670   1.803       .  S
S456        H457   1.408       .  S
C461        C462   1.404       .  A
C461        C466   1.410   1_455  A
C462        C463   1.400       .  A
C462        H471   1.084       .  S
C463        C464   1.415       .  A
C463        S467   1.800       .  S
C464        C465   1.410   1_455  A
C465        C466   1.400       .  A
C465       H2904   1.081       .  S
C466       S2900   1.806       .  S
S467        H470   1.405       .  S
S468       C1682   1.804       .  S
S468        H469   1.406       .  S
H472       C1681   1.083       .  S
C473        C474   1.408       .  A
C473        C478   1.404   1_455  A
C474        C475   1.409       .  A
C474        H483   1.083       .  S
C475        C476   1.415       .  A
C475        S479   1.807       .  S
C476        C477   1.408       .  A
C477        C478   1.398   1_455  A
C477        H484   1.075   1_455  S
C478        S480   1.802       .  S
S479        H482   1.407       .  S
S480        H481   1.405       .  S
C485        C486   1.403       .  A
C485        C490   1.419       .  A
C486        C487   1.400   1_455  A
C486        H495   1.084   1_455  S
C487        C488   1.414   1_655  A
C487        S491   1.804       .  S
C488        C489   1.399       .  A
C489        C490   1.397       .  A
C489        H496   1.084   1_556  S
C490        S492   1.803   1_556  S
S491        H494   1.407       .  S
S492        H493   1.407       .  S
C497        C498   1.405       .  A
C497        C502   1.423       .  A
C498        C499   1.403       .  A
C498        H507   1.084       .  S
C499        C500   1.418       .  A
C499        S503   1.802       .  S
C500        C501   1.401       .  A
C501        C502   1.398       .  A
C501        H508   1.084       .  S
C502        S504   1.803       .  S
S503        H506   1.408       .  S
S504        H505   1.394       .  S
C509        C510   1.399       .  A
C509        C514   1.416       .  A
C510        C511   1.397       .  A
C510        H519   1.084       .  S
C511        C512   1.418       .  A
C511        S515   1.805       .  S
C512       C1729   1.404       .  A
C513       C2944   1.403   1_455  A
C513       C2946   1.399       .  A
C513        H520   1.084       .  S
C514       C1729   1.403       .  A
C514       S1732   1.804       .  S
S515        H518   1.408       .  S
S516       C2946   1.804       .  S
S516        H517   1.407       .  S
C521        C522   1.409       .  A
C521       C2958   1.415   1_655  A
C522       C2955   1.395       .  A
C522        H531   1.078       .  S
C523        C524   1.403       .  A
C523       C1738   1.391       .  A
C523        S527   1.795       .  S
C524        C525   1.407       .  A
C525        C526   1.407       .  A
C525        H532   1.084       .  S
C526       C1737   1.412       .  A
C526        S528   1.805       .  S
S527        H530   1.408       .  S
S528        H529   1.407       .  S
C533        C534   1.408       .  A
C533        C538   1.416       .  A
C534        C535   1.405       .  A
C534        H543   1.083       .  S
C535        C536   1.409       .  A
C535        S539   1.802       .  S
C536        C537   1.404       .  A
C537        C538   1.401       .  A
C537        H544   1.084       .  S
C538        S540   1.803       .  S
S539        H542   1.407       .  S
S540        H541   1.408       .  S
C545        C546   1.402       .  A
C545        C550   1.415       .  A
C546        C547   1.401       .  A
C546        H555   1.084       .  S
C547        C548   1.420       .  A
C547        S551   1.802       .  S
C548        C549   1.402       .  A
C549        C550   1.397       .  A
C549        H556   1.084       .  S
C550        S552   1.797       .  S
S551       H1770   1.405       .  S
S552        H553   1.406       .  S
H554       S2983   1.406       .  S
C557        C558   1.406       .  A
C557        C562   1.414       .  A
C558        C559   1.399       .  A
C558        H567   1.084       .  S
C559        C560   1.414       .  A
C559        S563   1.798   1_455  S
C560        C561   1.409       .  A
C561        C562   1.406       .  A
C561        H568   1.083       .  S
C562        S564   1.809       .  S
S563        H566   1.403       .  S
S564        H565   1.407       .  S
C569        C570   1.407       .  A
C569       C1790   1.414       .  A
C570        C571   1.398       .  A
C570        H579   1.084       .  S
C571        C572   1.409       .  A
C571        S575   1.799       .  S
C572       C1789   1.407       .  A
C573        C574   1.400       .  A
C573       C3004   1.406       .  A
C573        H580   1.084       .  S
C574       C3001   1.414   1_455  A
C574        S576   1.803       .  S
S575        H578   1.407       .  S
S576        H577   1.407       .  S
C581       C3014   1.410   1_455  A
C581       C3018   1.414       .  A
C582        C583   1.398       .  A
C582       C1797   1.410       .  A
C582        H591   1.084       .  S
C583        C584   1.408       .  A
C583        S587   1.804       .  S
C584        C585   1.404       .  A
C585        C586   1.399       .  A
C585        H592   1.084       .  S
C586       C1797   1.416       .  A
C586       S1804   1.800       .  S
S587        H590   1.407       .  S
S588       C3018   1.798       .  S
S588        H589   1.408       .  S
C593        C598   1.408       .  A
C593       C1810   1.407       .  A
C594        C595   1.405       .  A
C594       C3025   1.405       .  A
C594        H603   1.084       .  S
C595        C596   1.416       .  A
C595        S599   1.798       .  S
C596       C3029   1.405   1_455  A
C597        C598   1.393       .  A
C597       C1812   1.406       .  A
C597        H604   1.084       .  S
C598        S600   1.792       .  S
S599        H602   1.407       .  S
S600        H601   1.408       .  S
C605        C606   1.408       .  A
C605        C610   1.419       .  A
C606        C607   1.401       .  A
C606        H615   1.084       .  S
C607        C608   1.411       .  A
C607        S611   1.798       .  S
C608       C1523   1.481       .  S
C608        C609   1.402       .  A
C609        C610   1.401       .  A
C609       H1832   1.084       .  S
C610        S612   1.796       .  S
S611        H614   1.407       .  S
S612        H613   1.397       .  S
H616       C3041   1.083       .  S
C617        C618   1.401       .  A
C617        C622   1.420       .  A
C618        C619   1.402   1_565  A
C618        H627   1.084       .  S
C619        C620   1.421       .  A
C619        S623   1.798   1_556  S
C620        C621   1.403       .  A
C621        C622   1.404   1_545  A
C621        H628   1.084       .  S
C622        S624   1.799       .  S
S623        H626   1.408       .  S
S624        H625   1.408       .  S
C629        C630   1.406       .  A
C629        C634   1.412       .  A
C630        C631   1.400       .  A
C630        H639   1.084       .  S
C631        C632   1.416       .  A
C631        S635   1.804   1_556  S
C632        C633   1.410       .  A
C633        C634   1.404       .  A
C633        H640   1.084       .  S
C634        S636   1.799       .  S
S635        H638   1.401       .  S
S636        H637   1.407       .  S
C641        C642   1.408       .  A
C641        C646   1.415       .  A
C642        C643   1.401       .  A
C642        H651   1.084       .  S
C643        C644   1.413       .  A
C643        S647   1.803       .  S
C644        C645   1.407       .  A
C645        C646   1.401       .  A
C645        H652   1.084       .  S
C646        S648   1.800       .  S
S647        H650   1.407       .  S
S648        H649   1.404       .  S
C653        C654   1.409       .  A
C653        C658   1.416       .  A
C654        C655   1.404       .  A
C654        H663   1.082       .  S
C655        C656   1.410       .  A
C655        S659   1.803       .  S
C656        C657   1.404       .  A
C657        C658   1.397       .  A
C657        H664   1.084       .  S
C658        S660   1.801       .  S
S659        H662   1.407       .  S
S660        H661   1.408       .  S
C665        C666   1.404       .  A
C665        C670   1.410       .  A
C666        C667   1.400       .  A
C666        H675   1.084       .  S
C667        C668   1.416       .  A
C667        S671   1.799       .  S
C668        C669   1.411       .  A
C669        C670   1.404       .  A
C669        H676   1.081       .  S
C670       S1888   1.804       .  S
S671        H674   1.408       .  S
S672       C3102   1.803       .  S
S672        H673   1.407       .  S
C677        C678   1.400       .  A
C677        C682   1.410       .  A
C678        C679   1.397       .  A
C678        H687   1.084       .  S
C679        C680   1.413       .  A
C679        S683   1.785       .  S
C680        C681   1.409       .  A
C681        C682   1.401       .  A
C681        H688   1.084       .  S
C682        S684   1.801       .  S
S683        H686   1.406       .  S
S684        H685   1.407       .  S
C689        C690   1.410       .  A
C689        C694   1.418       .  A
C690        C691   1.398       .  A
C690        H699   1.084       .  S
C691        C692   1.408       .  A
C691        S695   1.801       .  S
C692        C693   1.401       .  A
C693        C694   1.395       .  A
C693        H700   1.085       .  S
C694        S696   1.799       .  S
S695        H698   1.407       .  S
S696        H697   1.400       .  S
C701        C702   1.398       .  A
C701        C706   1.414       .  A
C702        C703   1.398       .  A
C702        H711   1.084   1_455  S
C703        C704   1.419       .  A
C703        S707   1.801   1_455  S
C704        C705   1.404       .  A
C705        C706   1.399       .  A
C705        H712   1.084       .  S
C706        S708   1.804       .  S
S707        H710   1.404   1_655  S
S708        H709   1.407       .  S
C713        C714   1.403   1_455  A
C713        C718   1.417       .  A
C714        C715   1.403       .  A
C714        H723   1.083       .  S
C715        C716   1.420   1_655  A
C715        S719   1.810       .  S
C716        C717   1.402       .  A
C717        C718   1.396       .  A
C717        H724   1.084       .  S
C718        S720   1.798       .  S
S719        H722   1.407       .  S
S720        H721   1.400       .  S
C725        C726   1.402       .  A
C725        C730   1.419       .  A
C726        C727   1.396       .  A
C726        H735   1.084       .  S
C727        C728   1.413       .  A
C727        S731   1.800       .  S
C728        C729   1.400       .  A
C729        C730   1.400       .  A
C729        H736   1.084       .  S
C730        S732   1.804       .  S
S731        H734   1.407       .  S
S732        H733   1.408       .  S
C737        C738   1.401       .  A
C737        C742   1.410       .  A
C738        C739   1.392       .  A
C738        H747   1.085       .  S
C739        C740   1.411       .  A
C739        S743   1.794   1_455  S
C740        C741   1.409       .  A
C741        C742   1.401       .  A
C741        H748   1.084       .  S
C742        S744   1.803       .  S
S743        H746   1.408   1_655  S
S744        H745   1.406       .  S
C749       C2711   1.481       .  S
C749        C750   1.396       .  A
C749        C754   1.419       .  A
C750        C751   1.389   1_556  A
C750        H759   1.085   1_456  S
C751        C752   1.412   1_554  A
C751        S755   1.784   1_455  S
C752        C753   1.405       .  A
C753        C754   1.409       .  A
C753        H760   1.083       .  S
C754       S3188   1.806       .  S
S755        H758   1.408   1_655  S
S756       C1970   1.797       .  S
S756        H757   1.407       .  S
C761        C762   1.405       .  A
C761        C766   1.415       .  A
C762        C763   1.401       .  A
C762        H771   1.084       .  S
C763        C764   1.413       .  A
C763        S767   1.803       .  S
C764        C765   1.397       .  A
C765        C766   1.392       .  A
C765        H772   1.085       .  S
C766        S768   1.797       .  S
S767        H770   1.406       .  S
S768        H769   1.408       .  S
C773        C774   1.401       .  A
C773        C778   1.412       .  A
C774        C775   1.406       .  A
C774        H783   1.083       .  S
C775        C776   1.420       .  A
C775        S779   1.809       .  S
C776        C777   1.404       .  A
C777        C778   1.397       .  A
C777        H784   1.084       .  S
C778        S780   1.801       .  S
S779        H782   1.407       .  S
S780        H781   1.407       .  S
C785        C786   1.409       .  A
C785        C790   1.417       .  A
C786        C787   1.397       .  A
C786        H795   1.080       .  S
C787        C788   1.409       .  A
C787        S791   1.802   1_455  S
C788        C789   1.406       .  A
C789        C790   1.400       .  A
C789        H796   1.084       .  S
C790        S792   1.800       .  S
S791        H794   1.407   1_655  S
S792        H793   1.406       .  S
C797        C798   1.402       .  A
C797        C802   1.413   1_556  A
C798        C799   1.392       .  A
C798        H807   1.085       .  S
C799        C800   1.413       .  A
C799        S803   1.790       .  S
C800        C801   1.410   1_556  A
C801        C802   1.407       .  A
C801        H808   1.084       .  S
C802        S804   1.798       .  S
S803        H806   1.405       .  S
S804        H805   1.407       .  S
C809        C810   1.400       .  A
C809       C2030   1.413       .  A
C810        C811   1.404       .  A
C810        H819   1.083       .  S
C811       C2028   1.421       .  A
C811        S815   1.810       .  S
C812        C813   1.405       .  A
C812       C3243   1.421   1_655  A
C813        C814   1.396       .  A
C813        H820   1.084       .  S
C814       C3241   1.412       .  A
C814        S816   1.805       .  S
S815        H818   1.407       .  S
S816        H817   1.407       .  S
C821        C822   1.394       .  A
C821        C826   1.416       .  A
C822        C823   1.395       .  A
C822        H831   1.085       .  S
C823        C824   1.421       .  A
C823        S827   1.791       .  S
C824        C825   1.406       .  A
C825        C826   1.403       .  A
C825        H832   1.084       .  S
C826        S828   1.804       .  S
S827        H830   1.408       .  S
S828        H829   1.407       .  S
C833        C834   1.402       .  A
C833        C838   1.413       .  A
C834        C835   1.405   1_545  A
C834        H843   1.084       .  S
C835        C836   1.419       .  A
C835        S839   1.804       .  S
C836        C837   1.397       .  A
C837        C838   1.396   1_565  A
C837        H844   1.085   1_455  S
C838        S840   1.791       .  S
S839        H842   1.407       .  S
S840        H841   1.407       .  S
C845        C846   1.409       .  A
C845        C850   1.415       .  A
C846        C847   1.400       .  A
C846        H855   1.084       .  S
C847        C848   1.410       .  A
C847        S851   1.803       .  S
C848        C849   1.406       .  A
C849        C850   1.401       .  A
C849        H856   1.084       .  S
C850        S852   1.802       .  S
S851        H854   1.407       .  S
S852        H853   1.408       .  S
C857        C858   1.400       .  A
C857        C862   1.413       .  A
C858        C859   1.402       .  A
C858        H867   1.084       .  S
C859        C860   1.421       .  A
C859        S863   1.803       .  S
C860        C861   1.403       .  A
C861        C862   1.395       .  A
C861        H868   1.084       .  S
C862        S864   1.804       .  S
S863        H866   1.408       .  S
S864        H865   1.406       .  S
C869        C870   1.400       .  A
C869        C874   1.413       .  A
C870        C871   1.406       .  A
C870        H879   1.083       .  S
C871        C872   1.422       .  A
C871        S875   1.810       .  S
C872        C873   1.403       .  A
C873        C874   1.398       .  A
C873        H880   1.084       .  S
C874        S876   1.801       .  S
S875        H878   1.407       .  S
S876        H877   1.405       .  S
C881        C882   1.405       .  A
C881        C886   1.408       .  A
C882        C883   1.399       .  A
C882        H891   1.084       .  S
C883        C884   1.417       .  A
C883        S887   1.801       .  S
C884        C885   1.411       .  A
C885        C886   1.400       .  A
C885        H892   1.084       .  S
C886        S888   1.803   1_455  S
S887        H890   1.398       .  S
S888        H889   1.407   1_655  S
C893        C894   1.400       .  A
C893        C898   1.420       .  A
C894        C895   1.399       .  A
C894        H903   1.084       .  S
C895        C896   1.418       .  A
C895        S899   1.798       .  S
C896        C897   1.402       .  A
C897        C898   1.402       .  A
C897        H904   1.084   1_455  S
C898        S900   1.804   1_455  S
S899        H902   1.408       .  S
S900        H901   1.406   1_655  S
C905        C906   1.398       .  A
C905        C910   1.413       .  A
C906        C907   1.399       .  A
C906        H915   1.084       .  S
C907        C908   1.422       .  A
C907        S911   1.802       .  S
C908        C909   1.403       .  A
C909        C910   1.397       .  A
C909        H916   1.084       .  S
C910        S912   1.801       .  S
S911        H914   1.404       .  S
S912        H913   1.407       .  S
C917        C918   1.404       .  A
C917        C922   1.418       .  A
C918        C919   1.402       .  A
C918        H927   1.084       .  S
C919        C920   1.416       .  A
C919        S923   1.804       .  S
C920        C921   1.399       .  A
C921        C922   1.395       .  A
C921        H928   1.083       .  S
C922        S924   1.802       .  S
S923        H926   1.407       .  S
S924        H925   1.408       .  S
C929        C930   1.403       .  A
C929        C934   1.420       .  A
C930        C931   1.399       .  A
C930        H939   1.083       .  S
C931        C932   1.412       .  A
C931        S935   1.810       .  S
C932        C933   1.398       .  A
C933        C934   1.397       .  A
C933        H940   1.085       .  S
C934        S936   1.804       .  S
S935        H938   1.407       .  S
S936        H937   1.408       .  S
C941       C1636   1.482       .  S
C941        C942   1.408       .  A
C941        C946   1.411   1_556  A
C942        C943   1.402       .  A
C942        H951   1.084       .  S
C943        C944   1.412       .  A
C943        S947   1.800       .  S
C944        C945   1.407   1_556  A
C945        C946   1.400       .  A
C945        H952   1.084       .  S
C946       S2164   1.800       .  S
S947        H950   1.403       .  S
S948       C3378   1.800   1_455  S
S948        H949   1.404       .  S
C953        C954   1.411       .  A
C953        C958   1.417   1_455  A
C954        C955   1.399       .  A
C954        H963   1.083       .  S
C955        C956   1.410       .  A
C955        S959   1.803       .  S
C956        C957   1.403   1_455  A
C957        C958   1.399       .  A
C957       H3396   1.084       .  S
C958       S3392   1.796       .  S
S959        H962   1.407       .  S
S960       C2174   1.797       .  S
S960        H961   1.398       .  S
H964       C2173   1.084       .  S
C965        C966   1.401   1_554  A
C965        C970   1.418       .  A
C966        C967   1.405       .  A
C966        H975   1.084       .  S
C967       C2184   1.421   1_556  A
C967       S2187   1.798       .  S
C968       C3399   1.416   1_554  A
C968       C3401   1.401   1_655  A
C969        C970   1.398       .  A
C969       C2184   1.400       .  A
C969        H976   1.084       .  S
C970        S972   1.799       .  S
S971       C3399   1.799       .  S
S971        H974   1.408       .  S
S972        H973   1.408       .  S
C977        C978   1.400   1_554  A
C977        C982   1.414       .  A
C978        C979   1.400       .  A
C978        H987   1.084       .  S
C979        C980   1.420   1_556  A
C979        S983   1.803       .  S
C980        C981   1.403       .  A
C981        C982   1.399       .  A
C981        H988   1.084       .  S
C982        S984   1.803   1_455  S
S983        H986   1.408       .  S
S984        H985   1.407   1_655  S
C989        C990   1.404       .  A
C989        C994   1.421   1_455  A
C990        C991   1.401       .  A
C990        H999   1.083       .  S
C991        C992   1.413       .  A
C991        S995   1.809       .  S
C992        C993   1.398   1_455  A
C993        C994   1.396       .  A
C993       H1000   1.084       .  S
C994        S996   1.804       .  S
S995        H998   1.407       .  S
S996        H997   1.408       .  S
C1001      C1002   1.404   1_455  A
C1001      C1006   1.408       .  A
C1002      C1003   1.401       .  A
C1002      H1011   1.083       .  S
C1003      C1004   1.408       .  A
C1003      S1007   1.800       .  S
C1004      C2598   1.474       .  S
C1004      C1005   1.405   1_655  A
C1005      C1006   1.398       .  A
C1005      H1012   1.084       .  S
C1006      S1008   1.797       .  S
S1007      H1010   1.407       .  S
S1008      H1009   1.407       .  S
C1013      C1014   1.404       .  A
C1013      C1018   1.423       .  A
C1014      C1015   1.396       .  A
C1014      H1023   1.084       .  S
C1015      C1016   1.414       .  A
C1015      S1019   1.803       .  S
C1016      C1017   1.397       .  A
C1017      C1018   1.397       .  A
C1017      H1024   1.085       .  S
C1018      S1020   1.803       .  S
S1019      H1022   1.407       .  S
S1020      H1021   1.399       .  S
C1025      C1026   1.404       .  A
C1025      C1030   1.409       .  A
C1026      C1027   1.398       .  A
C1026      H1035   1.084       .  S
C1027      C1028   1.418       .  A
C1027      S1031   1.801       .  S
C1028      C1029   1.411       .  A
C1029      C1030   1.399       .  A
C1029      H1036   1.084       .  S
C1030      S1032   1.803       .  S
S1031      H1034   1.397       .  S
S1032      H1033   1.407       .  S
C1037      C1038   1.401       .  A
C1037      C1042   1.416       .  A
C1038      C1039   1.399       .  A
C1038      H1047   1.084       .  S
C1039      C1040   1.421       .  A
C1039      S1043   1.801       .  S
C1040      C1041   1.407       .  A
C1041      C1042   1.404       .  A
C1041      H1048   1.083       .  S
C1042      S1044   1.808       .  S
S1043      H1046   1.389       .  S
S1044      H1045   1.407       .  S
C1049      C1050   1.406       .  A
C1049      C1054   1.408       .  A
C1050      C1051   1.401       .  A
C1050      H1059   1.084       .  S
C1051      C1052   1.417       .  A
C1051      S1055   1.799   1_455  S
C1052      C1053   1.411       .  A
C1053      C1054   1.402       .  A
C1053      H1060   1.081       .  S
C1054      S1056   1.807       .  S
S1055      H1058   1.407       .  S
S1056      H1057   1.405       .  S
C1061      C1062   1.400       .  A
C1061      C1066   1.415       .  A
C1062      C1063   1.401       .  A
C1062      H1071   1.083       .  S
C1063      C1064   1.420       .  A
C1063      S1067   1.811   1_455  S
C1064      C1065   1.403       .  A
C1065      C1066   1.398       .  A
C1065      H1072   1.084       .  S
C1066      S1068   1.804       .  S
S1067      H1070   1.407       .  S
S1068      H1069   1.407       .  S
C1073      C2710   1.468       .  S
C1073      C1074   1.402       .  A
C1073      C1078   1.411       .  A
C1074      C1075   1.400       .  A
C1074      H1083   1.084       .  S
C1075      C1076   1.413       .  A
C1075      S1079   1.804       .  S
C1076      C1077   1.401       .  A
C1077      C1078   1.397       .  A
C1077      H1084   1.084       .  S
C1078      S3512   1.801       .  S
S1079      H1082   1.407       .  S
S1080      C2294   1.802       .  S
S1080      H1081   1.405       .  S
C1085      C1086   1.402       .  A
C1085      C1090   1.413       .  A
C1086      C1087   1.397       .  A
C1086      H1095   1.084       .  S
C1087      C1088   1.410       .  A
C1087      S2307   1.795       .  S
C1088      C1271   1.481       .  S
C1088      C1089   1.408       .  A
C1089      C1090   1.404       .  A
C1089      H1096   1.084       .  S
C1090      S1092   1.804       .  S
S1091      C3519   1.793       .  S
S1091      H1094   1.407       .  S
S1092      H1093   1.406       .  S
C1097      C1098   1.402       .  A
C1097      C1102   1.414       .  A
C1098      C1099   1.409       .  A
C1098      H1107   1.083       .  S
C1099      C1100   1.423       .  A
C1099      S1103   1.809       .  S
C1100      C1101   1.405       .  A
C1101      C1102   1.398       .  A
C1101      H1108   1.084       .  S
C1102      S1104   1.803       .  S
S1103      H1106   1.407       .  S
S1104      H1105   1.407       .  S
C1109      C1110   1.404       .  A
C1109      C1114   1.423       .  A
C1110      C1111   1.403   1_565  A
C1110      H1119   1.084       .  S
C1111      C1112   1.422       .  A
C1111      S1115   1.801       .  S
C1112      C1113   1.403       .  A
C1113      C1114   1.400   1_545  A
C1113      H1120   1.084       .  S
C1114      S1116   1.804       .  S
S1115      H1118   1.397       .  S
S1116      H1117   1.393       .  S
C1121      C1122   1.406       .  A
C1121      C1126   1.409       .  A
C1122      C1123   1.405       .  A
C1122      H1131   1.083       .  S
C1123      C1124   1.416       .  A
C1123      S1127   1.808       .  S
C1124      C1125   1.412       .  A
C1125      C1126   1.401       .  A
C1125      H1132   1.084       .  S
C1126      S1128   1.802       .  S
S1127      H1130   1.407   1_455  S
S1128      H1129   1.406       .  S
C1133      C1134   1.404       .  A
C1133      C1138   1.421       .  A
C1134      C1135   1.396       .  A
C1134      H1143   1.084       .  S
C1135      C1136   1.412       .  A
C1135      S1139   1.804       .  S
C1136      C1137   1.400       .  A
C1137      C1138   1.401       .  A
C1137      H1144   1.084       .  S
C1138      S1140   1.800       .  S
S1139      H1142   1.406       .  S
S1140      H1141   1.400   1_455  S
C1145      C1146   1.405       .  A
C1145      C1150   1.412       .  A
C1146      C1147   1.401       .  A
C1146      H1155   1.084       .  S
C1147      C1148   1.413       .  A
C1147      S1151   1.799       .  S
C1148      C1149   1.406       .  A
C1149      C1150   1.399       .  A
C1149      H1156   1.084       .  S
C1150      S1152   1.798       .  S
S1151      H1154   1.404       .  S
S1152      H1153   1.402       .  S
C1157      C1158   1.404       .  A
C1157      C1162   1.424       .  A
C1158      C1159   1.397       .  A
C1158      H1167   1.084       .  S
C1159      C1160   1.412       .  A
C1159      S1163   1.802       .  S
C1160      C1161   1.399       .  A
C1161      C1162   1.400       .  A
C1161      H1168   1.084       .  S
C1162      S1164   1.805       .  S
S1163      H1166   1.406       .  S
S1164      H1165   1.393       .  S
C1169      C1170   1.401       .  A
C1169      C1174   1.409   1_455  A
C1170      C1171   1.396       .  A
C1170      H1179   1.083       .  S
C1171      C1172   1.414       .  A
C1171      S1175   1.796       .  S
C1172      C1173   1.414   1_455  A
C1173      C1174   1.403       .  A
C1173      H1180   1.084       .  S
C1174      S1176   1.802       .  S
S1175      H1178   1.407       .  S
S1176      H1177   1.407       .  S
C1181      C1182   1.405       .  A
C1181      C3618   1.417   1_455  A
C1182      C3615   1.402   1_565  A
C1182      H1191   1.084       .  S
C1183      C1184   1.417       .  A
C1183      C2398   1.400   1_545  A
C1183      S1187   1.804       .  S
C1184      C1185   1.401       .  A
C1185      C1186   1.398   1_545  A
C1185      H1192   1.084       .  S
C1186      C2397   1.418       .  A
C1186      S1188   1.801       .  S
S1187      H1190   1.407       .  S
S1188      H2405   1.408       .  S
H1189      S3620   1.408       .  S
C1193      C1194   1.406       .  A
C1193      C1198   1.415       .  A
C1194      C1195   1.395       .  A
C1194      H1203   1.080       .  S
C1195      C1196   1.407       .  A
C1195      S1199   1.794       .  S
C1196      C1197   1.408       .  A
C1197      C1198   1.406       .  A
C1197      H1204   1.083       .  S
C1198      S1200   1.801   1_455  S
S1199      H1202   1.408       .  S
S1200      H1201   1.408   1_655  S
C1205      C1206   1.399       .  A
C1205      C1210   1.415       .  A
C1206      C1207   1.398       .  A
C1206      H1215   1.084       .  S
C1207      C1208   1.418       .  A
C1207      S1211   1.800       .  S
C1208      C1209   1.403       .  A
C1209      C1210   1.401       .  A
C1209      H1216   1.084       .  S
C1210      S1212   1.804   1_455  S
S1211      H1214   1.407       .  S
S1212      H1213   1.407   1_655  S
O1217      V1225   1.925       .  S
O1217      C1227   1.271       .  A
O1218      V1225   1.921       .  S
O1218      C1228   1.270       .  A
O1219      V1225   1.888       .  S
O1219      C1229   1.261       .  A
O1220      V1225   1.889       .  S
O1220      C1230   1.261       .  A
O1221      V1226   1.907       .  S
O1221      C1230   1.267       .  A
O1222      V1226   1.910       .  S
O1222      C1229   1.268       .  A
O1223      V1226   1.876       .  S
O1223      C1228   1.259       .  A
O1224      V1226   1.881       .  S
O1224      C1227   1.261       .  A
V1225      V1226   2.086       .  T
C1227      C2409   1.492       .  S
C1228      C2385   1.478       .  S
C1229      C2397   1.483       .  S
C1230      C2421   1.475       .  S
O1231      V1239   1.908       .  S
O1231      C1241   1.267       .  A
O1232      V1239   1.907       .  S
O1232      C1242   1.268       .  A
O1233      V1239   1.887       .  S
O1233      C1243   1.261       .  A
O1234      V1239   1.884       .  S
O1234      C1244   1.260       .  A
O1235      V1240   1.911       .  S
O1235      C1244   1.268       .  A
O1236      V1240   1.913       .  S
O1236      C1243   1.268       .  A
O1237      V1240   1.894       .  S
O1237      C1242   1.260       .  A
O1238      V1240   1.894       .  S
O1238      C1241   1.262       .  A
V1239      V1240   2.085       .  T
C1241      C2376   1.479       .  S
C1242      C2349   1.487       .  S
C1243      C2361   1.482       .  S
C1244      C2424   1.481       .  S
O1245      V1253   1.922       .  S
O1245      C1255   1.271       .  A
O1246      V1253   1.919       .  S
O1246      C1256   1.269       .  A
O1247      V1253   1.892       .  S
O1247      C1257   1.259       .  A
O1248      V1253   1.895       .  S
O1248      C1258   1.264       .  A
O1249      V1254   1.909       .  S
O1249      C1258   1.267       .  A
O1250      V1254   1.912       .  S
O1250      C1257   1.270       .  A
O1251      V1254   1.895       .  S
O1251      C1256   1.262       .  A
O1252      V1254   1.896       .  S
O1252      C1255   1.261       .  A
V1253      V1254   2.084       .  T
C1255      C2412   1.487       .  S
C1256      C2313   1.484       .  S
C1257      C2325   1.494       .  S
C1258      C2340   1.493       .  S
O1259      V1267   1.914       .  S
O1259      C1269   1.271       .  A
O1260      V1267   1.910       .  S
O1260      C1270   1.267       .  A
O1261      V1267   1.891       .  S
O1261      C1271   1.260       .  A
O1262      V1267   1.879       .  S
O1262      C1272   1.258       .  A
O1263      V1268   1.919       .  S
O1263      C1272   1.269       .  A
O1264      V1268   1.917       .  S
O1264      C1271   1.270       .  A
O1265      V1268   1.888       .  S
O1265      C1270   1.260       .  A
O1266      V1268   1.887       .  S
O1266      C1269   1.259       .  A
V1267      V1268   2.085       .  T
C1269      C2373   1.491       .  S
C1270      C2292   1.470       .  S
C1272      C2337   1.479       .  S
O1273      V1281   1.915       .  S
O1273      C1283   1.268       .  A
O1274      V1281   1.913       .  S
O1274      C1284   1.269       .  A
O1275      V1281   1.891       .  S
O1275      C1285   1.261       .  A
O1276      V1281   1.888       .  S
O1276      C1286   1.261       .  A
O1277      V1282   1.907       .  S
O1277      C1286   1.268       .  A
O1278      V1282   1.905       .  S
O1278      C1285   1.268       .  A
O1279      V1282   1.884       .  S
O1279      C1284   1.260       .  A
O1280      V1282   1.884       .  S
O1280      C1283   1.259       .  A
V1281      V1282   2.085       .  T
C1283      C2265   1.468       .  S
C1284      C2241   1.476       .  S
C1285      C2253   1.481       .  S
C1286      C2277   1.475       .  S
O1287      V1295   1.917       .  S
O1287      C1297   1.271       .  A
O1288      V1295   1.916       .  S
O1288      C1298   1.270       .  A
O1289      V1295   1.886       .  S
O1289      C1299   1.260       .  A
O1290      V1295   1.881       .  S
O1290      C1300   1.258       .  A
O1291      V1296   1.915       .  S
O1291      C1300   1.270       .  A
O1292      V1296   1.919       .  S
O1292      C1299   1.271       .  A
O1293      V1296   1.884       .  S
O1293      C1298   1.259       .  A
O1294      V1296   1.883       .  S
O1294      C1297   1.259       .  A
V1295      V1296   2.085       .  T
C1297      C2229   1.487       .  S
C1298      C2208   1.478       .  S
C1299      C2217   1.484       .  S
C1300      C2280   1.480       .  S
O1301      V1309   1.915   1_556  S
O1301      C1311   1.268       .  A
O1302      V1309   1.915       .  S
O1302      C1312   1.268       .  A
O1303      V1309   1.896   1_556  S
O1303      C1313   1.262   1_556  A
O1304      V1309   1.887       .  S
O1304      C1314   1.260       .  A
O1305      V1310   1.915       .  S
O1305      C1314   1.268       .  A
O1306      V1310   1.912       .  S
O1306      C1313   1.270       .  A
O1307      V1310   1.886       .  S
O1307      C1312   1.261       .  A
O1308      V1310   1.883   1_556  S
O1308      C1311   1.258       .  A
V1309      V1310   2.086       .  T
C1311      C2268   1.469       .  S
C1312      C2169   1.493       .  S
C1313      C2184   1.489       .  S
C1314      C2193   1.476       .  S
O1315      V1323   1.911       .  S
O1315      C1325   1.269       .  A
O1316      V1323   1.917   1_556  S
O1316      C1326   1.269       .  A
O1317      V1323   1.881       .  S
O1317      C1327   1.259       .  A
O1318      V1323   1.883   1_556  S
O1318      C1328   1.258       .  A
O1319      V1324   1.912       .  S
O1319      C1328   1.268       .  A
O1320      V1324   1.911   1_554  S
O1320      C1327   1.269       .  A
O1321      V1324   1.891       .  S
O1321      C1326   1.261       .  A
O1322      V1324   1.893       .  S
O1322      C1325   1.261   1_556  A
V1323      V1324   2.085   1_554  T
C1325      C2196   1.484       .  S
C1326      C2160   1.481       .  S
C1327      C2145   1.481       .  S
C1328      C2232   1.475       .  S
O1329      V1337   1.909       .  S
O1329      C1339   1.267       .  A
O1330      V1337   1.909       .  S
O1330      C1340   1.267       .  A
O1331      V1337   1.886       .  S
O1331      C1341   1.260       .  A
O1332      V1337   1.885       .  S
O1332      C1342   1.260       .  A
O1333      V1338   1.914       .  S
O1333      C1342   1.270       .  A
O1334      V1338   1.910       .  S
O1334      C1341   1.268       .  A
O1335      V1338   1.879       .  S
O1335      C1340   1.259       .  A
O1336      V1338   1.880       .  S
O1336      C1339   1.259       .  A
V1337      V1338   2.087       .  T
C1339      C2121   1.470       .  S
C1340      C2097   1.470       .  S
C1341      C2133   1.481       .  S
C1342      C2109   1.483       .  S
O1343      V1351   1.910       .  S
O1343      C1353   1.267       .  A
O1344      V1351   1.906       .  S
O1344      C1354   1.268       .  A
O1345      V1351   1.890       .  S
O1345      C1355   1.261       .  A
O1346      V1351   1.888       .  S
O1346      C1356   1.261       .  A
O1347      V1352   1.909       .  S
O1347      C1356   1.268       .  A
O1348      V1352   1.905       .  S
O1348      C1355   1.267       .  A
O1349      V1352   1.891       .  S
O1349      C1354   1.261       .  A
O1350      V1352   1.896       .  S
O1350      C1353   1.262       .  A
V1351      V1352   2.086       .  T
C1353      C2085   1.480       .  S
C1354      C2076   1.484       .  S
C1355      C2136   1.475       .  S
C1356      C2400   1.480       .  S
O1357      V1365   1.912       .  S
O1357      C1367   1.269       .  A
O1358      V1365   1.916       .  S
O1358      C1368   1.268       .  A
O1359      V1365   1.889       .  S
O1359      C1369   1.261       .  A
O1360      V1365   1.893       .  S
O1360      C1370   1.261       .  A
O1361      V1366   1.914       .  S
O1361      C1370   1.270       .  A
O1362      V1366   1.915       .  S
O1362      C1369   1.270       .  A
O1363      V1366   1.885       .  S
O1363      C1368   1.260       .  A
O1364      V1366   1.883       .  S
O1364      C1367   1.260       .  A
V1365      V1366   2.084       .  T
C1367      C2061   1.481       .  S
C1368      C2049   1.480       .  S
C1369      C2088   1.488       .  S
C1370      C2040   1.490       .  S
O1371      V1379   1.915       .  S
O1371      C1381   1.269       .  A
O1372      V1379   1.917       .  S
O1372      C1382   1.270       .  A
O1373      V1379   1.879       .  S
O1373      C1383   1.257       .  A
O1374      V1379   1.879       .  S
O1374      C1384   1.259       .  A
O1375      V1380   1.908       .  S
O1375      C1384   1.267       .  A
O1376      V1380   1.911       .  S
O1376      C1383   1.270       .  A
O1378      V1380   1.879       .  S
O1378      C1381   1.258       .  A
V1379      V1380   2.087       .  T
V1380      O2593   1.882       .  S
C1381      C2064   1.473       .  S
C1382      O2593   1.259       .  A
C1382      C3436   1.476       .  S
C1383      C2124   1.482       .  S
C1384      C2025   1.469       .  S
O1385      V1393   1.908       .  S
O1385      C1395   1.267   1_556  A
O1386      V1393   1.911       .  S
O1386      C1396   1.266   1_556  A
O1387      V1393   1.894       .  S
O1387      C1397   1.262       .  A
O1388      V1393   1.891   1_554  S
O1388      C1398   1.263       .  A
O1389      V1394   1.904       .  S
O1389      C1398   1.265       .  A
O1390      V1394   1.903   1_556  S
O1390      C1397   1.267       .  A
O1391      V1394   1.885       .  S
O1391      C1396   1.262       .  A
O1392      V1394   1.893       .  S
O1392      C1395   1.262       .  A
V1393      V1394   2.085   1_556  T
C1395      C2181   1.483       .  S
C1396      C2013   1.478   1_554  S
C1397      C1992   1.485       .  S
C1398      C2001   1.475       .  S
O1399      V1407   1.908       .  S
O1399      C1409   1.268       .  A
O1400      V1407   1.907       .  S
O1400      C1410   1.266       .  A
O1401      V1407   1.890   1_554  S
O1401      C1411   1.261       .  A
O1402      V1407   1.888       .  S
O1402      C1412   1.261       .  A
O1403      V1408   1.912       .  S
O1403      C1412   1.269       .  A
O1404      V1408   1.906   1_554  S
O1404      C1411   1.267       .  A
O1405      V1408   1.897       .  S
O1405      C1410   1.262       .  A
O1406      V1408   1.899       .  S
O1406      C1409   1.263       .  A
V1407      V1408   2.085       .  T
C1409      C2016   1.489       .  S
C1410      C1968   1.475       .  S
C1411      C1977   1.484       .  S
C1412      C1956   1.484       .  S
O1413      V1421   1.899       .  S
O1413      C1423   1.267       .  A
O1414      V1421   1.905       .  S
O1414      C1424   1.268       .  A
O1415      V1421   1.881       .  S
O1415      C1425   1.258       .  A
O1416      V1421   1.877       .  S
O1416      C1426   1.258       .  A
O1417      V1422   1.911       .  S
O1417      C1426   1.267       .  A
O1418      V1422   1.910       .  S
O1418      C1425   1.267       .  A
O1419      V1422   1.890       .  S
O1419      C1424   1.260       .  A
O1420      V1422   1.891       .  S
O1420      C1423   1.261       .  A
V1421      V1422   2.088       .  T
C1423      C1941   1.477       .  S
C1424      C1932   1.485       .  S
C1425      C2004   1.463       .  S
C1426      C1917   1.468       .  S
O1427      V1435   1.908       .  S
O1427      C1437   1.267       .  A
O1428      V1435   1.908       .  S
O1428      C1438   1.266       .  A
O1429      V1435   1.887       .  S
O1429      C1439   1.262       .  A
O1430      V1435   1.889       .  S
O1430      C1440   1.260       .  A
O1431      V1436   1.894       .  S
O1431      C1440   1.264       .  A
O1432      V1436   1.894       .  S
O1432      C1439   1.262       .  A
O1433      V1436   1.886       .  S
O1433      C1438   1.261       .  A
O1434      V1436   1.892       .  S
O1434      C1437   1.262       .  A
V1435      V1436   2.085       .  T
C1437      C2301   1.481       .  S
C1438      C1944   1.469       .  S
C1439      C1905   1.482       .  S
C1440      C1980   1.465       .  S
O1441      V1449   1.921       .  S
O1442      V1449   1.919       .  S
O1442      C1452   1.271       .  A
O1443      V1449   1.887       .  S
O1443      C1453   1.259       .  A
O1444      V2665   1.887       .  S
O1444      C1454   1.261       .  A
O1445      V1450   1.916       .  S
O1445      C1454   1.269       .  A
O1446      V1450   1.911       .  S
O1446      C2669   1.269       .  A
O1447      V1450   1.886       .  S
O1447      C2668   1.260       .  A
O1448      V1450   1.882       .  S
O1448      C1451   1.259       .  A
V1450      V2665   2.084       .  T
C1451      O2657   1.270       .  A
C1451      C1881   1.477       .  S
C1452      C2388   1.497       .  S
C1453      C2052   1.477       .  S
C1454      C1896   1.488       .  S
O1455      V1463   1.908       .  S
O1455      C1465   1.268       .  A
O1456      V1463   1.909       .  S
O1456      C1466   1.267       .  A
O1457      V1463   1.890       .  S
O1457      C1467   1.262       .  A
O1458      V1463   1.886       .  S
O1458      C1468   1.260       .  A
O1459      V1464   1.909       .  S
O1459      C1468   1.267       .  A
O1460      V1464   1.911       .  S
O1460      C1467   1.268       .  A
O1461      V1464   1.890       .  S
O1461      C1466   1.262       .  A
O1462      V1464   1.888       .  S
O1462      C1465   1.262       .  A
V1463      V1464   2.084       .  T
C1465      C1869   1.482       .  S
C1466      C2352   1.475       .  S
C1467      C1857   1.486       .  S
C1468      C1893   1.474       .  S
O1469      V1477   1.908       .  S
O1469      C1479   1.268       .  A
O1470      V1477   1.907   1_554  S
O1470      C1480   1.269       .  A
O1471      V1477   1.893       .  S
O1471      C1481   1.261       .  A
O1472      V1477   1.888       .  S
O1472      C1482   1.260       .  A
O1473      V1478   1.916       .  S
O1473      C1482   1.269       .  A
O1474      V1478   1.915       .  S
O1474      C1481   1.270       .  A
O1475      V1478   1.896   1_554  S
O1475      C1480   1.262       .  A
O1476      V1478   1.894       .  S
O1476      C1479   1.263       .  A
V1477      V1478   2.084       .  T
C1479      C1884   1.490       .  S
C1480      C2316   1.488       .  S
C1481      C1833   1.488       .  S
C1482      C1845   1.481       .  S
O1483      V1491   1.918       .  S
O1483      C1493   1.269       .  A
O1486      V1491   1.895       .  S
O1486      C1496   1.263       .  A
O1487      V1492   1.910       .  S
O1487      C1496   1.268       .  A
O1488      V1492   1.908       .  S
O1488      C1495   1.270       .  A
O1489      V1492   1.882   1_554  S
O1489      C1494   1.259       .  A
O1490      V1492   1.882       .  S
O1490      C1493   1.259       .  A
V1491      O2700   1.919   1_556  S
V1491      O2701   1.895       .  S
V1491      V1492   2.084       .  T
C1493      C1872   1.475       .  S
C1494      O2700   1.271       .  A
C1494      C3505   1.486       .  S
C1495      O2701   1.261       .  A
C1495      C3181   1.489       .  S
C1496      C1848   1.488       .  S
O1498      V1505   1.910       .  S
O1498      C1508   1.268       .  A
O1500      V1505   1.898       .  S
O1500      C1510   1.263       .  A
O1501      V1506   1.905       .  S
O1501      C1510   1.266       .  A
O1502      V1506   1.902       .  S
O1502      C1509   1.265       .  A
O1503      V1506   1.886       .  S
O1503      C1508   1.259       .  A
O1504      V1506   1.888       .  S
O1504      C1507   1.260       .  A
V1505      O2713   1.910       .  S
V1505      O2715   1.906       .  S
V1505      V1506   2.084       .  T
C1507      O2713   1.265       .  A
C1507      C1821   1.484       .  S
C1508      C2256   1.487       .  S
C1509      O2715   1.265       .  A
C1509      C1809   1.484       .  S
C1510      C1989   1.477       .  S
O1511      V1519   1.909       .  S
O1511      C1521   1.268       .  A
O1512      V1519   1.908       .  S
O1512      C1522   1.266       .  A
O1513      V1519   1.896       .  S
O1513      C1523   1.263       .  A
O1514      V1519   1.892       .  S
O1514      C1524   1.263       .  A
O1515      V1520   1.910       .  S
O1515      C1524   1.268       .  A
O1516      V2736   1.909       .  S
O1516      C2739   1.267       .  A
O1517      V1520   1.884       .  S
O1517      C1522   1.260       .  A
O1518      V2736   1.883       .  S
O1518      C2737   1.261       .  A
V1519      V1520   2.085       .  T
C1521      C1797   1.485       .  S
C1522      C1953   1.471       .  S
C1524      C1860   1.482       .  S
O1525      V1533   1.921       .  S
O1525      C1535   1.269       .  A
O1526      V2749   1.912       .  S
O1526      C1536   1.268       .  A
O1527      V1533   1.882       .  S
O1527      C1537   1.258       .  A
O1528      V2749   1.894       .  S
O1528      C2754   1.264       .  A
O1529      V1534   1.919       .  S
O1529      C1538   1.269       .  A
O1530      V1534   1.911       .  S
O1530      C1537   1.270       .  A
O1531      V1534   1.883       .  S
O1532      V1534   1.888       .  S
O1532      C1535   1.262       .  A
V1533      V1534   2.084       .  T
C1535      C1776   1.490       .  S
C1536      O2747   1.262       .  A
C1536      C1788   1.484       .  S
C1537      C1920   1.479       .  S
C1538      C1812   1.487       .  S
O1539      V1547   1.912       .  S
O1539      C1549   1.268       .  A
O1540      V1547   1.914       .  S
O1540      C1550   1.268       .  A
O1541      V1547   1.882       .  S
O1541      C1551   1.259       .  A
O1542      V1547   1.876       .  S
O1542      C1552   1.259       .  A
O1543      V1548   1.904       .  S
O1543      C1552   1.266       .  A
O1544      V1548   1.904       .  S
O1544      C1551   1.266       .  A
O1545      V1548   1.886       .  S
O1545      C1550   1.261       .  A
O1546      V1548   1.889       .  S
O1546      C1549   1.262       .  A
V1547      V1548   2.087       .  T
C1549      C1785   1.487       .  S
C1550      C2364   1.483       .  S
C1551      C1800   1.466       .  S
C1552      C1908   1.465       .  S
O1553      V1561   1.911       .  S
O1553      C1563   1.268       .  A
O1554      V1561   1.910       .  S
O1554      C1564   1.267       .  A
O1555      V1561   1.894       .  S
O1555      C1565   1.263       .  A
O1556      V1561   1.895       .  S
O1556      C1566   1.263       .  A
O1557      V1562   1.911       .  S
O1557      C1566   1.267       .  A
O1558      V1562   1.912       .  S
O1558      C1565   1.268       .  A
O1559      V1562   1.888       .  S
O1559      C1564   1.263       .  A
O1560      V1562   1.888       .  S
O1560      C1563   1.263       .  A
V1561      V1562   2.083       .  T
C1563      C1749   1.491       .  S
C1564      C2244   1.489       .  S
C1565      C1773   1.488       .  S
C1566      C1761   1.481       .  S
O1567      V2791   1.907       .  S
O1567      C1577   1.268       .  A
O1568      V1575   1.910       .  S
O1568      C1578   1.268       .  A
O1569      V1575   1.883       .  S
O1569      C1579   1.259       .  A
O1570      V2791   1.880       .  S
O1570      C2796   1.260       .  A
O1571      V1576   1.918       .  S
O1571      C1580   1.269       .  A
O1572      V1576   1.916       .  S
O1572      C1579   1.270       .  A
O1573      V1576   1.894       .  S
O1573      C1578   1.262       .  A
O1574      V1576   1.893       .  S
V1575      V1576   2.084       .  T
C1577      O2790   1.261       .  A
C1577      C1764   1.483       .  S
C1578      C2112   1.486       .  S
C1579      C2205   1.487       .  S
C1580      C1737   1.480       .  S
O1581      V1589   1.917       .  S
O1582      V1589   1.913       .  S
O1582      C1592   1.268       .  A
O1583      V1589   1.890       .  S
O1583      C1593   1.261       .  A
O1584      V1589   1.896       .  S
O1585      V1590   1.902       .  S
O1585      C1594   1.266       .  A
O1586      V1590   1.906       .  S
O1586      C2809   1.267       .  A
O1587      V1590   1.886       .  S
O1587      C2808   1.261       .  A
O1588      V1590   1.891       .  S
O1588      C1591   1.262       .  A
V1590      V2805   2.087       .  T
C1591      O2797   1.269       .  A
C1591      C1752   1.483       .  S
C1592      C2172   1.478       .  S
C1593      C1929   1.485       .  S
C1594      O2800   1.262       .  A
C1594      C1725   1.475       .  S
O1595      V1603   1.910       .  S
O1595      C1605   1.268       .  A
O1596      V1603   1.907       .  S
O1596      C1606   1.267       .  A
O1597      V1603   1.888       .  S
O1597      C1607   1.261       .  A
O1598      V1603   1.884       .  S
O1598      C1608   1.260       .  A
O1600      V1604   1.919       .  S
O1600      C1607   1.271       .  A
O1601      V1604   1.885       .  S
O1601      C1606   1.260       .  A
O1602      V1604   1.889       .  S
O1602      C1605   1.261       .  A
V1603      V1604   2.086       .  T
V1604      O2815   1.911       .  S
C1605      C1740   1.476       .  S
C1606      C2148   1.471       .  S
C1607      C1713   1.491       .  S
C1608      O2815   1.268       .  A
C1608      C1728   1.479       .  S
O1609      V1617   1.915   1_554  S
O1609      C1619   1.268       .  A
O1610      V1617   1.910       .  S
O1610      C1620   1.268       .  A
O1611      V1617   1.891       .  S
O1611      C1621   1.261       .  A
O1612      V1617   1.896       .  S
O1612      C1622   1.263       .  A
O1613      V1618   1.919       .  S
O1613      C1622   1.270       .  A
O1614      V1618   1.911       .  S
O1614      C1621   1.269       .  A
O1615      V1618   1.884       .  S
O1615      C1620   1.259       .  A
O1616      V1618   1.884   1_554  S
O1616      C1619   1.262       .  A
V1617      V1618   2.084       .  T
C1619      C1692   1.487       .  S
C1620      C2037   1.473       .  S
C1621      C1701   1.485       .  S
C1622      C1836   1.493       .  S
O1623      V1631   1.910   1_554  S
O1623      C1633   1.268       .  A
O1624      V1631   1.905       .  S
O1624      C1634   1.268       .  A
O1625      V1631   1.889       .  S
O1625      C1635   1.261       .  A
O1626      V2847   1.894       .  S
O1626      C2852   1.262       .  A
O1627      V1632   1.913       .  S
O1627      C1636   1.268       .  A
O1628      V1632   1.909       .  S
O1628      C1635   1.268       .  A
O1629      V1632   1.886       .  S
O1629      C1634   1.260       .  A
O1630      V1632   1.884   1_554  S
O1630      C1633   1.259       .  A
V1631      V1632   2.087       .  T
C1633      C1677   1.469       .  S
C1634      C2028   1.483       .  S
C1635      C1704   1.476       .  S
O1637      V1645   1.914       .  S
O1637      C2863   1.269       .  A
O1638      V1645   1.913       .  S
O1638      C1648   1.268       .  A
O1639      V1645   1.890       .  S
O1639      C2865   1.261       .  A
O1640      V1645   1.895       .  S
O1640      C1650   1.261       .  A
O1641      V2862   1.908       .  S
O1641      C1650   1.269       .  A
O1642      V1646   1.906       .  S
O1642      C1649   1.268       .  A
O1643      V2862   1.885       .  S
O1643      C1648   1.260       .  A
O1644      V1646   1.885       .  S
O1644      C1647   1.259       .  A
V1645      V2862   2.086       .  T
C1647      C1689   1.473       .  S
C1648      C2073   1.475       .  S
C1649      C1665   1.487       .  S
C1650      C2328   1.492       .  S
O1651      V1659   1.910       .  S
O1651      C1661   1.268       .  A
O1652      V1659   1.908       .  S
O1652      C1662   1.269       .  A
O1653      V1659   1.882       .  S
O1653      C1663   1.260       .  A
O1654      V1659   1.882       .  S
O1654      C1664   1.260       .  A
O1655      V1660   1.911       .  S
O1655      C1664   1.268       .  A
O1656      V1660   1.911       .  S
O1656      C1663   1.268       .  A
O1657      V1660   1.896       .  S
O1657      C1662   1.262       .  A
O1658      V1660   1.896       .  S
O1658      C1661   1.262       .  A
V1659      V1660   2.084       .  T
C1661      C1668   1.483       .  S
C1662      C1716   1.487       .  S
C1663      C1680   1.483       .  S
C1664      C2100   1.482       .  S
C1665      C1666   1.404       .  A
C1665      C1670   1.419       .  A
C1666      C1667   1.402       .  A
C1666      H1675   1.083       .  S
C1667      C1668   1.415       .  A
C1667      S1671   1.804       .  S
C1668      C1669   1.402       .  A
C1669      C1670   1.400       .  A
C1669      H1676   1.084       .  S
S1671      H1674   1.407       .  S
S1672      C2886   1.803       .  S
S1672      H1673   1.408       .  S
C1677      C1678   1.404       .  A
C1677      C1682   1.407       .  A
C1678      C1679   1.400       .  A
C1678      H1687   1.084       .  S
C1679      C1680   1.415       .  A
C1679      S1683   1.801       .  S
C1680      C1681   1.409       .  A
C1681      C1682   1.396       .  A
S1683      H1686   1.401       .  S
S1684      C2898   1.805       .  S
S1684      H1685   1.404       .  S
H1688      C2897   1.082       .  S
C1689      C1690   1.405       .  A
C1689      C1694   1.404       .  A
C1690      C1691   1.406       .  A
C1690      H1699   1.085       .  S
C1691      C1692   1.416       .  A
C1691      S1695   1.805       .  S
C1692      C1693   1.406       .  A
C1693      C1694   1.392       .  A
C1693      H1700   1.084       .  S
C1694      S1696   1.797       .  S
S1695      H1698   1.407       .  S
S1696      H1697   1.407       .  S
C1701      C1702   1.404       .  A
C1701      C1706   1.419       .  A
C1702      C1703   1.401       .  A
C1702      H1711   1.084       .  S
C1703      C1704   1.416       .  A
C1703      S1707   1.804       .  S
C1704      C1705   1.399       .  A
C1705      C1706   1.398       .  A
C1705      H1712   1.085   1_556  S
C1706      S1708   1.800   1_556  S
S1707      H1710   1.407       .  S
S1708      H1709   1.404       .  S
C1713      C1714   1.405       .  A
C1713      C1718   1.420       .  A
C1714      C1715   1.405       .  A
C1714      H1723   1.084       .  S
C1715      C1716   1.419       .  A
C1715      S1719   1.801       .  S
C1716      C1717   1.401       .  A
C1717      C1718   1.397       .  A
C1717      H1724   1.084       .  S
C1718      S1720   1.799       .  S
S1719      H1722   1.408       .  S
S1720      H1721   1.400       .  S
C1725      C1726   1.400       .  A
C1725      C1730   1.416       .  A
C1726      C1727   1.396       .  A
C1726      H1735   1.085       .  S
C1727      C1728   1.418       .  A
C1727      S1731   1.805       .  S
C1728      C2945   1.403       .  A
C1729      H1736   1.084       .  S
C1730      C2945   1.400       .  A
C1730      S2948   1.804       .  S
S1731      H1734   1.408       .  S
S1732      H1733   1.407       .  S
C1737      C1738   1.405       .  A
C1738      H1747   1.080       .  S
C1739      C2954   1.397       .  A
C1739      C1740   1.404       .  A
C1739      S1743   1.802       .  S
C1740      C1741   1.407       .  A
C1741      C1742   1.407       .  A
C1741      H1748   1.082       .  S
C1742      C2953   1.413       .  A
C1742      S1744   1.806       .  S
S1743      H1746   1.405       .  S
S1744      H1745   1.406       .  S
C1749      C1750   1.409       .  A
C1749      C1754   1.416       .  A
C1750      C1751   1.403       .  A
C1750      H1759   1.082       .  S
C1751      C1752   1.410       .  A
C1751      S1755   1.803       .  S
C1752      C1753   1.406       .  A
C1753      C1754   1.401       .  A
C1753      H1760   1.084       .  S
C1754      S1756   1.802       .  S
S1755      H1758   1.407       .  S
S1756      H1757   1.408       .  S
C1761      C1762   1.402       .  A
C1761      C1766   1.413       .  A
C1762      C1763   1.403       .  A
C1762      H1771   1.084       .  S
C1763      C1764   1.419       .  A
C1763      S1767   1.802       .  S
C1764      C1765   1.401       .  A
C1765      C1766   1.396       .  A
C1765      H1772   1.084       .  S
C1766      S1768   1.794       .  S
S1767      H2986   1.406       .  S
S1768      H1769   1.408       .  S
C1773      C1774   1.407       .  A
C1773      C1778   1.413       .  A
C1774      C1775   1.402       .  A
C1774      H1783   1.084       .  S
C1775      C1776   1.416       .  A
C1775      S1779   1.799       .  S
C1776      C1777   1.409       .  A
C1777      C1778   1.405       .  A
C1777      H1784   1.083       .  S
C1778      S1780   1.809       .  S
S1779      H1782   1.398       .  S
S1780      H1781   1.407       .  S
C1785      C1786   1.408       .  A
C1785      C3006   1.415       .  A
C1786      C1787   1.399       .  A
C1786      H1795   1.084       .  S
C1787      C1788   1.412       .  A
C1787      S1791   1.800       .  S
C1788      C3005   1.408       .  A
C1789      C1790   1.401       .  A
C1789      H1796   1.084       .  S
C1790      S1792   1.803       .  S
S1791      H1794   1.407       .  S
S1792      H1793   1.407       .  S
C1798      C3013   1.409       .  A
C1798      C1799   1.396       .  A
C1798      H1807   1.084       .  S
C1799      C1800   1.408       .  A
C1799      S1803   1.804       .  S
C1800      C1801   1.403       .  A
C1801      C1802   1.397       .  A
C1801      H1808   1.084       .  S
C1802      C3013   1.414       .  A
C1802      S3020   1.801       .  S
S1803      H1806   1.406       .  S
S1804      H1805   1.408       .  S
C1809      C3026   1.404       .  A
C1809      C1814   1.412       .  A
C1810      C1811   1.406       .  A
C1810      H1819   1.084       .  S
C1811      C1812   1.416       .  A
C1811      S1815   1.799       .  S
C1813      C3028   1.407       .  A
C1813      C1814   1.398       .  A
C1813      H1820   1.084       .  S
C1814      S1816   1.799       .  S
S1815      H1818   1.407       .  S
S1816      H1817   1.406       .  S
C1821      C1822   1.409       .  A
C1821      C1826   1.416       .  A
C1822      C1823   1.398       .  A
C1822      H1831   1.084       .  S
C1823      C1824   1.408       .  A
C1823      S1827   1.801       .  S
C1824      C2739   1.472       .  S
C1824      C1825   1.403       .  A
C1825      C1826   1.398       .  A
C1825      H3048   1.084       .  S
C1826      S1828   1.797       .  S
S1827      H1830   1.407       .  S
S1828      H1829   1.393       .  S
C1833      C1834   1.400       .  A
C1833      C1838   1.419       .  A
C1834      C1835   1.400   1_565  A
C1834      H1843   1.084       .  S
C1835      C1836   1.419       .  A
C1835      S1839   1.796   1_556  S
C1836      C1837   1.404       .  A
C1837      C1838   1.405   1_545  A
C1837      H1844   1.084       .  S
C1838      S1840   1.802       .  S
S1839      H1842   1.408       .  S
S1840      H1841   1.408       .  S
C1845      C1846   1.405       .  A
C1845      C1850   1.411       .  A
C1846      C1847   1.400       .  A
C1846      H1855   1.084       .  S
C1847      C1848   1.415       .  A
C1847      S1851   1.799   1_556  S
C1848      C1849   1.408       .  A
C1849      C1850   1.401       .  A
C1849      H1856   1.084       .  S
C1850      S1852   1.798       .  S
S1851      H1854   1.405       .  S
S1852      H1853   1.407       .  S
C1857      C1858   1.408       .  A
C1857      C1862   1.414       .  A
C1858      C1859   1.400       .  A
C1858      H1867   1.084       .  S
C1859      C1860   1.413       .  A
C1859      S1863   1.803       .  S
C1860      C1861   1.406       .  A
C1861      C1862   1.401       .  A
C1861      H1868   1.084       .  S
C1862      S1864   1.800       .  S
S1863      H1866   1.406       .  S
S1864      H1865   1.402       .  S
C1869      C1870   1.408       .  A
C1869      C1874   1.414       .  A
C1870      C1871   1.404       .  A
C1870      H1879   1.083       .  S
C1871      C1872   1.408       .  A
C1871      S1875   1.802       .  S
C1872      C1873   1.403       .  A
C1873      C1874   1.397       .  A
C1873      H1880   1.084       .  S
C1874      S1876   1.802       .  S
S1875      H1878   1.407       .  S
S1876      H1877   1.407       .  S
C1881      C1882   1.404       .  A
C1881      C1886   1.409       .  A
C1882      C1883   1.398       .  A
C1882      H1891   1.085       .  S
C1883      C1884   1.416       .  A
C1883      S1887   1.801       .  S
C1884      C1885   1.411       .  A
C1885      C1886   1.402       .  A
C1885      H1892   1.083       .  S
C1886      S3104   1.803       .  S
S1887      H1890   1.407       .  S
S1888      H1889   1.407       .  S
C1893      C1894   1.401       .  A
C1893      C1898   1.410       .  A
C1894      C1895   1.396       .  A
C1894      H1903   1.085       .  S
C1895      C1896   1.412       .  A
C1895      S1899   1.786       .  S
C1896      C1897   1.409       .  A
C1897      C1898   1.401       .  A
C1897      H1904   1.084       .  S
C1898      S1900   1.801       .  S
S1899      H1902   1.406       .  S
S1900      H1901   1.405       .  S
C1905      C1906   1.409       .  A
C1905      C1910   1.418       .  A
C1906      C1907   1.395       .  A
C1906      H1915   1.083       .  S
C1907      C1908   1.408       .  A
C1907      S1911   1.802       .  S
C1908      C1909   1.400       .  A
C1909      C1910   1.393       .  A
C1909      H1916   1.085       .  S
C1910      S1912   1.799       .  S
S1911      H1914   1.406       .  S
S1912      H1913   1.400       .  S
C1917      C1918   1.398       .  A
C1917      C1922   1.413       .  A
C1918      C1919   1.398       .  A
C1918      H1927   1.084       .  S
C1919      C1920   1.421       .  A
C1919      S1923   1.801       .  S
C1920      C1921   1.402       .  A
C1921      C1922   1.395       .  A
C1921      H1928   1.084       .  S
C1922      S1924   1.804       .  S
S1923      H1926   1.402       .  S
S1924      H1925   1.407       .  S
C1929      C1930   1.403       .  A
C1929      C1934   1.417       .  A
C1930      C1931   1.403       .  A
C1930      H1939   1.083       .  S
C1931      C1932   1.418       .  A
C1931      S1935   1.809       .  S
C1932      C1933   1.402       .  A
C1933      C1934   1.400       .  A
C1933      H1940   1.082       .  S
C1934      S1936   1.807       .  S
S1935      H1938   1.407       .  S
S1936      H1937   1.407       .  S
C1941      C1942   1.402       .  A
C1941      C1946   1.418       .  A
C1942      C1943   1.394       .  A
C1942      H1951   1.084       .  S
C1943      C1944   1.411       .  A
C1943      S1947   1.801       .  S
C1944      C1945   1.400       .  A
C1945      C1946   1.400       .  A
C1945      H1952   1.084       .  S
C1946      S1948   1.803       .  S
S1947      H1950   1.406       .  S
S1948      H1949   1.408       .  S
C1953      C1954   1.400       .  A
C1953      C1958   1.411       .  A
C1954      C1955   1.393       .  A
C1954      H1963   1.085       .  S
C1955      C1956   1.411       .  A
C1955      S1959   1.788       .  S
C1956      C1957   1.409       .  A
C1957      C1958   1.402       .  A
C1957      H1964   1.084       .  S
C1958      S1960   1.803       .  S
S1959      H1962   1.407       .  S
S1960      H1961   1.405       .  S
C1965      C1966   1.402   1_556  A
C1965      C1970   1.413       .  A
C1966      C1967   1.401       .  A
C1966      H1975   1.084       .  S
C1967      C1968   1.412   1_554  A
C1967      S1971   1.799       .  S
C1968      C1969   1.400       .  A
C1969      C1970   1.401       .  A
C1969      H1976   1.084       .  S
S1971      H1974   1.406       .  S
S1972      C3186   1.800       .  S
S1972      H1973   1.400       .  S
C1977      C1978   1.406       .  A
C1977      C1982   1.419       .  A
C1978      C1979   1.399       .  A
C1978      H1987   1.084       .  S
C1979      C1980   1.410       .  A
C1979      S1983   1.802       .  S
C1980      C1981   1.394       .  A
C1981      C1982   1.396       .  A
C1981      H1988   1.084       .  S
C1982      S1984   1.800       .  S
S1983      H1986   1.406       .  S
S1984      H1985   1.407       .  S
C1989      C1990   1.402       .  A
C1989      C1994   1.411       .  A
C1990      C1991   1.400       .  A
C1990      H1999   1.084       .  S
C1991      C1992   1.418       .  A
C1991      S1995   1.800       .  S
C1992      C1993   1.405       .  A
C1993      C1994   1.399       .  A
C1993      H2000   1.084       .  S
C1994      S1996   1.799       .  S
S1995      H1998   1.405       .  S
S1996      H1997   1.406       .  S
C2001      C2002   1.404       .  A
C2001      C2006   1.412       .  A
C2002      C2003   1.396       .  A
C2002      H2011   1.075       .  S
C2003      C2004   1.406       .  A
C2003      S2007   1.802       .  S
C2004      C2005   1.403       .  A
C2005      C2006   1.399       .  A
C2005      H2012   1.083       .  S
C2006      S2008   1.798       .  S
S2007      H2010   1.405       .  S
S2008      H2009   1.404       .  S
C2013      C2014   1.401       .  A
C2013      C2018   1.413   1_556  A
C2014      C2015   1.393       .  A
C2014      H2023   1.085       .  S
C2015      C2016   1.412       .  A
C2015      S2019   1.790       .  S
C2016      C2017   1.410   1_556  A
C2017      C2018   1.406       .  A
C2017      H2024   1.083       .  S
C2018      S2020   1.802       .  S
S2019      H2022   1.407       .  S
S2020      H2021   1.407       .  S
C2025      C2026   1.400       .  A
C2025      C3246   1.412       .  A
C2026      C2027   1.403       .  A
C2026      H2035   1.083       .  S
C2027      C3244   1.420       .  A
C2027      S2031   1.810       .  S
C2028      C2029   1.403       .  A
C2029      C2030   1.395       .  A
C2029      H2036   1.084       .  S
C2030      S2032   1.805       .  S
S2031      H2034   1.407       .  S
S2032      H2033   1.407       .  S
C2037      C2038   1.395       .  A
C2037      C2042   1.415       .  A
C2038      C2039   1.395       .  A
C2038      H2047   1.085       .  S
C2039      C2040   1.420       .  A
C2039      S2043   1.789       .  S
C2040      C2041   1.405       .  A
C2041      C2042   1.401       .  A
C2041      H2048   1.084       .  S
C2042      S2044   1.804       .  S
S2043      H2046   1.407       .  S
S2044      H2045   1.407       .  S
C2049      C2050   1.402       .  A
C2049      C2054   1.413       .  A
C2050      C2051   1.405   1_545  A
C2050      H2059   1.084       .  S
C2051      C2052   1.418       .  A
C2051      S2055   1.803       .  S
C2052      C2053   1.396       .  A
C2053      C2054   1.394   1_565  A
C2053      H2060   1.084       .  S
C2054      S2056   1.792       .  S
S2055      H2058   1.407       .  S
S2056      H2057   1.408       .  S
C2061      C2062   1.409       .  A
C2061      C2066   1.413       .  A
C2062      C2063   1.398       .  A
C2062      H2071   1.084       .  S
C2063      C2064   1.409       .  A
C2063      S2067   1.803       .  S
C2064      C2065   1.406       .  A
C2065      C2066   1.399       .  A
C2065      H2072   1.084       .  S
C2066      S2068   1.802       .  S
S2067      H2070   1.407       .  S
S2068      H2069   1.408       .  S
C2073      C2074   1.399       .  A
C2073      C2078   1.415       .  A
C2074      C2075   1.401       .  A
C2074      H2083   1.085       .  S
C2075      C2076   1.421       .  A
C2075      S2079   1.803       .  S
C2076      C2077   1.403       .  A
C2077      C2078   1.397       .  A
C2077      H2084   1.084       .  S
C2078      S2080   1.804       .  S
S2079      H2082   1.408       .  S
S2080      H2081   1.406       .  S
C2085      C2086   1.400       .  A
C2085      C2090   1.414       .  A
C2086      C2087   1.405       .  A
C2086      H2095   1.082       .  S
C2087      C2088   1.420       .  A
C2087      S2091   1.810       .  S
C2088      C2089   1.404       .  A
C2089      C2090   1.401       .  A
C2089      H2096   1.084       .  S
C2090      S2092   1.801       .  S
S2091      H2094   1.407       .  S
S2092      H2093   1.405       .  S
C2097      C2098   1.404       .  A
C2097      C2102   1.407       .  A
C2098      C2099   1.396       .  A
C2098      H2107   1.084       .  S
C2099      C2100   1.413       .  A
C2099      S2103   1.799       .  S
C2100      C2101   1.410       .  A
C2101      C2102   1.398       .  A
C2101      H2108   1.084       .  S
C2102      S2104   1.804       .  S
S2103      H2106   1.399       .  S
S2104      H2105   1.407       .  S
C2109      C2110   1.401       .  A
C2109      C2114   1.419       .  A
C2110      C2111   1.400       .  A
C2110      H2119   1.084       .  S
C2111      C2112   1.419       .  A
C2111      S2115   1.798       .  S
C2112      C2113   1.402       .  A
C2113      C2114   1.400       .  A
C2113      H2120   1.084       .  S
C2114      S2116   1.804       .  S
S2115      H2118   1.407       .  S
S2116      H2117   1.406       .  S
C2121      C2122   1.396       .  A
C2121      C2126   1.413       .  A
C2122      C2123   1.397       .  A
C2122      H2131   1.084       .  S
C2123      C2124   1.422       .  A
C2123      S2127   1.799       .  S
C2124      C2125   1.402       .  A
C2125      C2126   1.396       .  A
C2125      H2132   1.084       .  S
C2126      S2128   1.799       .  S
S2127      H2130   1.400       .  S
S2128      H2129   1.407       .  S
C2133      C2134   1.403       .  A
C2133      C2138   1.418       .  A
C2134      C2135   1.400       .  A
C2134      H2143   1.084       .  S
C2135      C2136   1.415       .  A
C2135      S2139   1.804       .  S
C2136      C2137   1.399       .  A
C2137      C2138   1.396       .  A
C2137      H2144   1.083       .  S
C2138      S2140   1.801       .  S
S2139      H2142   1.407       .  S
S2140      H2141   1.408       .  S
C2145      C2146   1.404       .  A
C2145      C2150   1.421       .  A
C2146      C2147   1.402       .  A
C2146      H2155   1.083       .  S
C2147      C2148   1.412       .  A
C2147      S2151   1.809       .  S
C2148      C2149   1.398       .  A
C2149      C2150   1.397       .  A
C2149      H2156   1.084       .  S
C2150      S2152   1.804       .  S
S2151      H2154   1.407       .  S
S2152      H2153   1.408       .  S
C2157      C2852   1.481       .  S
C2157      C2158   1.406       .  A
C2157      C2162   1.414   1_556  A
C2158      C2159   1.402       .  A
C2158      H2167   1.084       .  S
C2159      C2160   1.410       .  A
C2159      S2163   1.799       .  S
C2160      C2161   1.406   1_556  A
C2161      C2162   1.403       .  A
C2161      H2168   1.084       .  S
C2162      S3380   1.802       .  S
S2163      H2166   1.406       .  S
S2164      H2165   1.403       .  S
C2169      C2170   1.411       .  A
C2169      C2174   1.417       .  A
C2170      C2171   1.400       .  A
C2170      H2179   1.083       .  S
C2171      C2172   1.410       .  A
C2171      S2175   1.804       .  S
C2172      C2173   1.403       .  A
C2173      C2174   1.400       .  A
S2175      H2178   1.407       .  S
S2176      C3390   1.798       .  S
S2176      H2177   1.397       .  S
H2180      C3389   1.084       .  S
C2181      C2182   1.403   1_554  A
C2181      C2186   1.416       .  A
C2182      C2183   1.401       .  A
C2182      H2191   1.084       .  S
C2183      C3400   1.414   1_556  A
C2183      S3403   1.797       .  S
C2185      C3400   1.400       .  A
C2185      C2186   1.395       .  A
C2185      H2192   1.084       .  S
C2186      S2188   1.795       .  S
S2187      H2190   1.407       .  S
S2188      H2189   1.408       .  S
C2193      C2194   1.401   1_554  A
C2193      C2198   1.413       .  A
C2194      C2195   1.403       .  A
C2194      H2203   1.084       .  S
C2195      C2196   1.420   1_556  A
C2195      S2199   1.802       .  S
C2196      C2197   1.402       .  A
C2197      C2198   1.398       .  A
C2197      H2204   1.084       .  S
C2198      S2200   1.801       .  S
S2199      H2202   1.407       .  S
S2200      H2201   1.407       .  S
C2205      C2206   1.404       .  A
C2205      C2210   1.422       .  A
C2206      C2207   1.404       .  A
C2206      H2215   1.083       .  S
C2207      C2208   1.415       .  A
C2207      S2211   1.809       .  S
C2208      C2209   1.399       .  A
C2209      C2210   1.399       .  A
C2209      H2216   1.084       .  S
C2210      S2212   1.804       .  S
S2211      H2214   1.407       .  S
S2212      H2213   1.408       .  S
C2217      C2218   1.408       .  A
C2217      C2222   1.410       .  A
C2218      C2219   1.405       .  A
C2218      H2227   1.083       .  S
C2219      C2220   1.408       .  A
C2219      S2223   1.804       .  S
C2220      C2221   1.406       .  A
C2221      C2222   1.403       .  A
C2221      H2228   1.083       .  S
C2222      S2224   1.804       .  S
S2223      H2226   1.407       .  S
S2224      H2225   1.407       .  S
C2229      C2230   1.403       .  A
C2229      C2234   1.422       .  A
C2230      C2231   1.400       .  A
C2230      H2239   1.084       .  S
C2231      C2232   1.416       .  A
C2231      S2235   1.803       .  S
C2232      C2233   1.397       .  A
C2233      C2234   1.398       .  A
C2233      H2240   1.085       .  S
C2234      S2236   1.799       .  S
S2235      H2238   1.406       .  S
S2236      H2237   1.402       .  S
C2241      C2242   1.404       .  A
C2241      C2246   1.408       .  A
C2242      C2243   1.399       .  A
C2242      H2251   1.084       .  S
C2243      C2244   1.419       .  A
C2243      S2247   1.803       .  S
C2244      C2245   1.411       .  A
C2245      C2246   1.399       .  A
C2245      H2252   1.084       .  S
C2246      S2248   1.803       .  S
S2247      H2250   1.392       .  S
S2248      H2249   1.407       .  S
C2253      C2254   1.399       .  A
C2253      C2258   1.416       .  A
C2254      C2255   1.395       .  A
C2254      H2263   1.084       .  S
C2255      C2256   1.419       .  A
C2255      S2259   1.796       .  S
C2256      C2257   1.405       .  A
C2257      C2258   1.405       .  A
C2257      H2264   1.083       .  S
C2258      S2260   1.807       .  S
S2259      H2262   1.398       .  S
S2260      H2261   1.407       .  S
C2265      C2266   1.402       .  A
C2265      C2270   1.410       .  A
C2266      C2267   1.403       .  A
C2266      H2275   1.084       .  S
C2267      C2268   1.413       .  A
C2267      S2271   1.803       .  S
C2268      C2269   1.400       .  A
C2269      C2270   1.396       .  A
C2269      H2276   1.083       .  S
C2270      S2272   1.803       .  S
S2271      H2274   1.403       .  S
S2272      H2273   1.404       .  S
C2277      C2278   1.400       .  A
C2277      C2282   1.416       .  A
C2278      C2279   1.401       .  A
C2278      H2287   1.083       .  S
C2279      C2280   1.419       .  A
C2279      S2283   1.811       .  S
C2280      C2281   1.402       .  A
C2281      C2282   1.399       .  A
C2281      H2288   1.084       .  S
C2282      S2284   1.804       .  S
S2283      H2286   1.407       .  S
S2284      H2285   1.407       .  S
C2289      C2290   1.402       .  A
C2289      C2294   1.412       .  A
C2290      C2291   1.400       .  A
C2290      H2299   1.084       .  S
C2291      C2292   1.412       .  A
C2291      S2295   1.804       .  S
C2292      C2293   1.402       .  A
C2293      C2294   1.400       .  A
C2293      H2300   1.084       .  S
S2295      H2298   1.407       .  S
S2296      C3510   1.808       .  S
S2296      H2297   1.406       .  S
C2301      C2302   1.407       .  A
C2301      C2306   1.411       .  A
C2302      C2303   1.406       .  A
C2302      H2311   1.082       .  S
C2303      C2304   1.411       .  A
C2303      S3523   1.803       .  S
C2304      C2487   1.484       .  S
C2304      C2305   1.407       .  A
C2305      C2306   1.399       .  A
C2305      H2312   1.084       .  S
C2306      S2308   1.801       .  S
S2307      H2310   1.408       .  S
S2308      H2309   1.400       .  S
C2313      C2314   1.403       .  A
C2313      C2318   1.412       .  A
C2314      C2315   1.410       .  A
C2314      H2323   1.083       .  S
C2315      C2316   1.420       .  A
C2315      S2319   1.807       .  S
C2316      C2317   1.401       .  A
C2317      C2318   1.395       .  A
C2317      H2324   1.084       .  S
C2318      S2320   1.794       .  S
S2319      H2322   1.407       .  S
S2320      H2321   1.408       .  S
C2325      C2326   1.404       .  A
C2325      C2330   1.424       .  A
C2326      C2327   1.401   1_565  A
C2326      H2335   1.084       .  S
C2327      C2328   1.421       .  A
C2327      S2331   1.803       .  S
C2328      C2329   1.402       .  A
C2329      C2330   1.399   1_545  A
C2329      H2336   1.084       .  S
C2330      S2332   1.803       .  S
S2331      H2334   1.393       .  S
S2332      H2333   1.388       .  S
C2337      C2338   1.403       .  A
C2337      C2342   1.408       .  A
C2338      C2339   1.398       .  A
C2338      H2347   1.085       .  S
C2339      C2340   1.419       .  A
C2339      S2343   1.801       .  S
C2340      C2341   1.413       .  A
C2341      C2342   1.402       .  A
C2341      H2348   1.084       .  S
C2342      S2344   1.801       .  S
S2343      H2346   1.391       .  S
S2344      H2345   1.407       .  S
C2349      C2350   1.404       .  A
C2349      C2354   1.421       .  A
C2350      C2351   1.397       .  A
C2350      H2359   1.084       .  S
C2351      C2352   1.413       .  A
C2351      S2355   1.804       .  S
C2352      C2353   1.400       .  A
C2353      C2354   1.402       .  A
C2353      H2360   1.084       .  S
C2354      S2356   1.800       .  S
S2355      H2358   1.406       .  S
S2356      H2357   1.401       .  S
C2361      C2362   1.406       .  A
C2361      C2366   1.412       .  A
C2362      C2363   1.400       .  A
C2362      H2371   1.084       .  S
C2363      C2364   1.413       .  A
C2363      S2367   1.799       .  S
C2364      C2365   1.406       .  A
C2365      C2366   1.399       .  A
C2365      H2372   1.084       .  S
C2366      S2368   1.798       .  S
S2367      H2370   1.404       .  S
S2368      H2369   1.402       .  S
C2373      C2374   1.405       .  A
C2373      C2378   1.425       .  A
C2374      C2375   1.399       .  A
C2374      H2383   1.084       .  S
C2375      C2376   1.413       .  A
C2375      S2379   1.799       .  S
C2376      C2377   1.398       .  A
C2377      C2378   1.401       .  A
C2377      H2384   1.084       .  S
C2378      S2380   1.803       .  S
S2379      H2382   1.406       .  S
S2380      H2381   1.396       .  S
C2385      C2386   1.402       .  A
C2385      C2390   1.408       .  A
C2386      C2387   1.399       .  A
C2386      H2395   1.083       .  S
C2387      C2388   1.414       .  A
C2387      S2391   1.796       .  S
C2388      C2389   1.414       .  A
C2389      C2390   1.404       .  A
C2389      H2396   1.083       .  S
C2390      S2392   1.802       .  S
S2391      H2394   1.407       .  S
S2392      H2393   1.406       .  S
C2397      C2398   1.404       .  A
C2398      H2407   1.084       .  S
C2399      C3614   1.398   1_545  A
C2399      C2400   1.416       .  A
C2399      S2403   1.804       .  S
C2400      C2401   1.403       .  A
C2401      C2402   1.401   1_545  A
C2401      H2408   1.084       .  S
C2402      C3613   1.417       .  A
C2402      S2404   1.802       .  S
S2403      H2406   1.407       .  S
S2404      H3621   1.408       .  S
C2409      C2410   1.407       .  A
C2409      C2414   1.416       .  A
C2410      C2411   1.395       .  A
C2410      H2419   1.082       .  S
C2411      C2412   1.408       .  A
C2411      S2415   1.791       .  S
C2412      C2413   1.409       .  A
C2413      C2414   1.409       .  A
C2413      H2420   1.084       .  S
C2414      S2416   1.800       .  S
S2415      H2418   1.408       .  S
S2416      H2417   1.407       .  S
C2421      C2422   1.398       .  A
C2421      C2426   1.417       .  A
C2422      C2423   1.396       .  A
C2422      H2431   1.085       .  S
C2423      C2424   1.419       .  A
C2423      S2427   1.802       .  S
C2424      C2425   1.403       .  A
C2425      C2426   1.401       .  A
C2425      H2432   1.084       .  S
C2426      S2428   1.804       .  S
S2427      H2430   1.408       .  S
S2428      H2429   1.407       .  S
O2433      V2441   1.917       .  S
O2433      C2443   1.269       .  A
O2434      V2441   1.913       .  S
O2434      C2444   1.267       .  A
O2435      V2441   1.893       .  S
O2435      C2445   1.262       .  A
O2436      V2441   1.893       .  S
O2436      C2446   1.262       .  A
O2437      V2442   1.905       .  S
O2437      C2446   1.266       .  A
O2438      V2442   1.905       .  S
O2438      C2445   1.267       .  A
O2439      V2442   1.873       .  S
O2439      C2444   1.258       .  A
O2440      V2442   1.875       .  S
O2440      C2443   1.260       .  A
V2441      V2442   2.086       .  T
C2443      C3625   1.484       .  S
C2444      C3601   1.466       .  S
C2445      C3613   1.482       .  S
C2446      C3637   1.475       .  S
O2447      V2455   1.907       .  S
O2447      C2457   1.267       .  A
O2448      V2455   1.908       .  S
O2448      C2458   1.268       .  A
O2449      V2455   1.892       .  S
O2449      C2459   1.262       .  A
O2450      V2455   1.890       .  S
O2450      C2460   1.261       .  A
O2451      V2456   1.908       .  S
O2451      C2460   1.267       .  A
O2452      V2456   1.911       .  S
O2452      C2459   1.267       .  A
O2453      V2456   1.892       .  S
O2453      C2458   1.261       .  A
O2454      V2456   1.895       .  S
O2454      C2457   1.262       .  A
V2455      V2456   2.086       .  T
C2457      C3592   1.479       .  S
C2458      C3565   1.487       .  S
C2459      C3577   1.481       .  S
C2460      C3640   1.481       .  S
O2461      V2469   1.917       .  S
O2461      C2471   1.270       .  A
O2462      V2469   1.914       .  S
O2462      C2472   1.269       .  A
O2463      V2469   1.888       .  S
O2463      C2473   1.258       .  A
O2464      V2469   1.888       .  S
O2464      C2474   1.262       .  A
O2465      V2470   1.914       .  S
O2465      C2474   1.269       .  A
O2466      V2470   1.918       .  S
O2466      C2473   1.272       .  A
O2467      V2470   1.884       .  S
O2467      C2472   1.259       .  A
O2468      V2470   1.888       .  S
O2468      C2471   1.259       .  A
V2469      V2470   2.085       .  T
C2471      C3628   1.479       .  S
C2472      C3529   1.474       .  S
C2473      C3541   1.495       .  S
C2474      C3556   1.490       .  S
O2475      V2483   1.914       .  S
O2475      C2485   1.270       .  A
O2476      V2483   1.908       .  S
O2476      C2486   1.270       .  A
O2477      V2483   1.883       .  S
O2477      C2487   1.260       .  A
O2478      V2483   1.881       .  S
O2478      C2488   1.258       .  A
O2479      V2484   1.918       .  S
O2479      C2488   1.269       .  A
O2480      V2484   1.922       .  S
O2480      C2487   1.271       .  A
O2481      V2484   1.891       .  S
O2481      C2486   1.260       .  A
O2482      V2484   1.889       .  S
O2482      C2485   1.260       .  A
V2483      V2484   2.084       .  T
C2485      C3589   1.491       .  S
C2486      C3508   1.492       .  S
C2488      C3553   1.481       .  S
O2489      V2497   1.915       .  S
O2489      C2499   1.269       .  A
O2490      V2497   1.913       .  S
O2490      C2500   1.269       .  A
O2491      V2497   1.888       .  S
O2491      C2501   1.260       .  A
O2492      V2497   1.884       .  S
O2492      C2502   1.259       .  A
O2493      V2498   1.912       .  S
O2493      C2502   1.269       .  A
O2494      V2498   1.915       .  S
O2494      C2501   1.271       .  A
O2495      V2498   1.880       .  S
O2495      C2500   1.259       .  A
O2496      V2498   1.885       .  S
O2496      C2499   1.258       .  A
V2497      V2498   2.085       .  T
C2499      C3481   1.468       .  S
C2500      C3457   1.475       .  S
C2501      C3469   1.490       .  S
C2502      C3493   1.474       .  S
O2503      V2511   1.909       .  S
O2503      C2513   1.269       .  A
O2504      V2511   1.909       .  S
O2504      C2514   1.268       .  A
O2505      V2511   1.880       .  S
O2505      C2515   1.259       .  A
O2506      V2511   1.880       .  S
O2506      C2516   1.258       .  A
O2507      V2512   1.914       .  S
O2507      C2516   1.270       .  A
O2508      V2512   1.920       .  S
O2508      C2515   1.270       .  A
O2509      V2512   1.887       .  S
O2509      C2514   1.260       .  A
O2510      V2512   1.886       .  S
O2510      C2513   1.260       .  A
V2511      V2512   2.087       .  T
C2513      C3445   1.482       .  S
C2514      C3424   1.474       .  S
C2515      C3433   1.479       .  S
C2516      C3496   1.479       .  S
O2517      V2525   1.911   1_556  S
O2517      C2527   1.266       .  A
O2518      V2525   1.910       .  S
O2518      C2528   1.266       .  A
O2519      V2525   1.901   1_556  S
O2519      C2529   1.264   1_556  A
O2520      V2525   1.895       .  S
O2520      C2530   1.263       .  A
O2521      V2526   1.902       .  S
O2521      C2530   1.265       .  A
O2522      V2526   1.897       .  S
O2522      C2529   1.265       .  A
O2523      V2526   1.889       .  S
O2523      C2528   1.262       .  A
O2524      V2526   1.889   1_556  S
O2524      C2527   1.262       .  A
V2525      V2526   2.086       .  T
C2527      C3484   1.473       .  S
C2528      C3385   1.489       .  S
C2529      C3400   1.479       .  S
C2530      C3409   1.475       .  S
O2531      V2539   1.904       .  S
O2531      C2541   1.267       .  A
O2532      V2539   1.910   1_556  S
O2532      C2542   1.267       .  A
O2533      V2539   1.889       .  S
O2533      C2543   1.261       .  A
O2534      V2539   1.889   1_556  S
O2534      C2544   1.261       .  A
O2535      V2540   1.902       .  S
O2535      C2544   1.265       .  A
O2536      V2540   1.899   1_554  S
O2536      C2543   1.266       .  A
O2537      V2540   1.888       .  S
O2537      C2542   1.261       .  A
O2538      V2540   1.890   1_554  S
O2538      C2541   1.261       .  A
V2539      V2540   2.086   1_554  T
C2541      C3412   1.481       .  S
C2542      C3376   1.475       .  S
C2543      C3361   1.479       .  S
C2544      C3448   1.470       .  S
O2545      V2553   1.907       .  S
O2545      C2555   1.267       .  A
O2546      V2553   1.908       .  S
O2546      C2556   1.267       .  A
O2547      V2553   1.888       .  S
O2547      C2557   1.261       .  A
O2548      V2553   1.889       .  S
O2548      C2558   1.260       .  A
O2549      V2554   1.914       .  S
O2549      C2558   1.270       .  A
O2550      V2554   1.910       .  S
O2550      C2557   1.268       .  A
O2551      V2554   1.880       .  S
O2551      C2556   1.259       .  A
O2552      V2554   1.881       .  S
O2552      C2555   1.259       .  A
V2553      V2554   2.087       .  T
C2555      C3337   1.469       .  S
C2556      C3313   1.471       .  S
C2557      C3349   1.483       .  S
C2558      C3325   1.484       .  S
O2559      V2567   1.914       .  S
O2559      C2569   1.269       .  A
O2560      V2567   1.911       .  S
O2560      C2570   1.269       .  A
O2561      V2567   1.888       .  S
O2561      C2571   1.261       .  A
O2562      V2567   1.889       .  S
O2562      C2572   1.260       .  A
O2563      V2568   1.911       .  S
O2563      C2572   1.269       .  A
O2564      V2568   1.908       .  S
O2564      C2571   1.268       .  A
O2565      V2568   1.890       .  S
O2565      C2570   1.261       .  A
O2566      V2568   1.892       .  S
O2566      C2569   1.261       .  A
V2567      V2568   2.087       .  T
C2569      C3301   1.481       .  S
C2570      C3292   1.484       .  S
C2571      C3352   1.477       .  S
C2572      C3616   1.481       .  S
O2573      V2581   1.912       .  S
O2573      C2583   1.269       .  A
O2574      V2581   1.918       .  S
O2574      C2584   1.269       .  A
O2575      V2581   1.887       .  S
O2575      C2585   1.260       .  A
O2576      V2581   1.890       .  S
O2576      C2586   1.261       .  A
O2577      V2582   1.916       .  S
O2577      C2586   1.270       .  A
O2578      V2582   1.917       .  S
O2578      C2585   1.271       .  A
O2579      V2582   1.887       .  S
O2579      C2584   1.261       .  A
O2580      V2582   1.884       .  S
O2580      C2583   1.260       .  A
V2581      V2582   2.084       .  T
C2583      C3277   1.483       .  S
C2584      C3265   1.482       .  S
C2585      C3304   1.491       .  S
C2586      C3256   1.490       .  S
O2587      V2595   1.915       .  S
O2587      C2597   1.269       .  A
O2588      V2595   1.918       .  S
O2588      C2598   1.270       .  A
O2589      V2595   1.881       .  S
O2589      C2599   1.258       .  A
O2590      V2595   1.885       .  S
O2590      C2600   1.260       .  A
O2591      V2596   1.909       .  S
O2591      C2600   1.267       .  A
O2592      V2596   1.910       .  S
O2592      C2599   1.270       .  A
O2594      V2596   1.879       .  S
O2594      C2597   1.258       .  A
V2595      V2596   2.087       .  T
C2597      C3280   1.474       .  S
C2599      C3340   1.483       .  S
C2600      C3241   1.471       .  S
O2601      V2609   1.920       .  S
O2601      C2611   1.271   1_556  A
O2602      V2609   1.918       .  S
O2602      C2612   1.268       .  A
O2603      V2609   1.893       .  S
O2603      C2613   1.262       .  A
O2604      V2609   1.893   1_554  S
O2604      C2614   1.263       .  A
O2605      V2610   1.910       .  S
O2605      C2614   1.267       .  A
O2606      V2610   1.908   1_556  S
O2606      C2613   1.269       .  A
O2607      V2610   1.877   1_556  S
O2607      C2612   1.258       .  A
O2608      V2610   1.888       .  S
O2608      C2611   1.260       .  A
V2609      V2610   2.084   1_556  T
C2611      C3397   1.488       .  S
C2612      C3229   1.472       .  S
C2613      C3208   1.488       .  S
C2614      C3217   1.490       .  S
O2615      V2623   1.913       .  S
O2615      C2625   1.269       .  A
O2616      V2623   1.919       .  S
O2616      C2626   1.270       .  A
O2617      V2623   1.886   1_554  S
O2617      C2627   1.261       .  A
O2618      V2623   1.887       .  S
O2618      C2628   1.260       .  A
O2619      V2624   1.913       .  S
O2619      C2628   1.269       .  A
O2620      V2624   1.915   1_554  S
O2620      C2627   1.268       .  A
O2621      V2624   1.891       .  S
O2621      C2626   1.261       .  A
O2622      V2624   1.889       .  S
O2622      C2625   1.260       .  A
V2623      V2624   2.084       .  T
C2625      C3232   1.482       .  S
C2626      C3184   1.494       .  S
C2627      C3193   1.488       .  S
C2628      C3172   1.485       .  S
O2629      V2637   1.898       .  S
O2629      C2639   1.266       .  A
O2630      V2637   1.903       .  S
O2630      C2640   1.267       .  A
O2631      V2637   1.888       .  S
O2631      C2641   1.260       .  A
O2632      V2637   1.888       .  S
O2632      C2642   1.261       .  A
O2633      V2638   1.914       .  S
O2633      C2642   1.269       .  A
O2634      V2638   1.913       .  S
O2634      C2641   1.268       .  A
O2635      V2638   1.892       .  S
O2635      C2640   1.261       .  A
O2636      V2638   1.892       .  S
O2636      C2639   1.261       .  A
V2637      V2638   2.087       .  T
C2639      C3157   1.477       .  S
C2640      C3148   1.482       .  S
C2641      C3220   1.475       .  S
C2642      C3133   1.481       .  S
O2643      V2651   1.913       .  S
O2643      C2653   1.268       .  A
O2644      V2651   1.910       .  S
O2644      C2654   1.267       .  A
O2645      V2651   1.893       .  S
O2645      C2655   1.264       .  A
O2646      V2651   1.893       .  S
O2646      C2656   1.260       .  A
O2647      V2652   1.901       .  S
O2647      C2656   1.267       .  A
O2648      V2652   1.903       .  S
O2648      C2655   1.265       .  A
O2649      V2652   1.884       .  S
O2649      C2654   1.261       .  A
O2650      V2652   1.894       .  S
O2650      C2653   1.262       .  A
V2651      V2652   2.084       .  T
C2653      C3517   1.480       .  S
C2654      C3160   1.471       .  S
C2655      C3121   1.491       .  S
C2656      C3196   1.471       .  S
O2657      V2665   1.917       .  S
O2658      V2665   1.917       .  S
O2658      C2668   1.270       .  A
O2659      V2665   1.889       .  S
O2659      C2669   1.259       .  A
O2660      C2670   1.260   1_455  A
O2661      V2666   1.912       .  S
O2661      C2670   1.269       .  A
O2662      V2666   1.914       .  S
O2663      V2666   1.887       .  S
O2664      V2666   1.879       .  S
O2664      C2667   1.258   1_655  A
C2667      C3097   1.474       .  S
C2668      C3604   1.488       .  S
C2669      C3268   1.479       .  S
C2670      C3112   1.487       .  S
O2671      V2679   1.902       .  S
O2671      C2681   1.265       .  A
O2672      V2679   1.903       .  S
O2672      C2682   1.265       .  A
O2673      V2679   1.890       .  S
O2673      C2683   1.262       .  A
O2674      V2679   1.886       .  S
O2674      C2684   1.261       .  A
O2675      V2680   1.907       .  S
O2675      C2684   1.266       .  A
O2676      V2680   1.907       .  S
O2676      C2683   1.267       .  A
O2677      V2680   1.894       .  S
O2677      C2682   1.263       .  A
O2678      V2680   1.891       .  S
O2678      C2681   1.263       .  A
V2679      V2680   2.085       .  T
C2681      C3085   1.483       .  S
C2682      C3568   1.473       .  S
C2683      C3073   1.484       .  S
C2684      C3109   1.474       .  S
O2685      V2693   1.912       .  S
O2685      C2695   1.269       .  A
O2686      V2693   1.912   1_554  S
O2686      C2696   1.269       .  A
O2687      V2693   1.889       .  S
O2687      C2697   1.260       .  A
O2688      V2693   1.882       .  S
O2688      C2698   1.259       .  A
O2689      V2694   1.912   1_455  S
O2689      C2698   1.268   1_455  A
O2690      V2694   1.915       .  S
O2690      C2697   1.270       .  A
O2691      V2694   1.888   1_554  S
O2691      C2696   1.260       .  A
O2692      V2694   1.890   1_455  S
O2692      C2695   1.261   1_455  A
V2693      V2694   2.085       .  T
C2695      C3100   1.489       .  S
C2696      C3532   1.485       .  S
C2697      C3049   1.486       .  S
C2698      C3061   1.475       .  S
O2699      V2707   1.908       .  S
O2699      C2709   1.267       .  A
O2702      V2707   1.891       .  S
O2702      C2712   1.264       .  A
O2703      V2708   1.902       .  S
O2703      C2712   1.265   1_655  A
O2704      V2708   1.900       .  S
O2704      C2711   1.268   1_655  A
O2705      V2708   1.888   1_554  S
O2705      C2710   1.260   1_655  A
O2706      V2708   1.887       .  S
O2706      C2709   1.260   1_655  A
V2707      V2708   2.087   1_455  T
C2709      C3088   1.471   1_455  S
C2712      C3064   1.484   1_455  S
O2714      V2721   1.913   1_655  S
O2714      C2724   1.271       .  A
O2716      V2721   1.890   1_655  S
O2716      C2726   1.261       .  A
O2717      V2722   1.911       .  S
O2717      C2726   1.268       .  A
O2718      V2722   1.911       .  S
O2718      C2725   1.268       .  A
O2719      V2722   1.894       .  S
O2719      C2724   1.260       .  A
O2720      V2722   1.892       .  S
O2720      C2723   1.263       .  A
V2721      V2722   2.084   1_455  T
C2723      C3037   1.494   1_655  S
C2724      C3472   1.494       .  S
C2725      C3025   1.479   1_655  S
C2726      C3205   1.476       .  S
O2727      V2735   1.906       .  S
O2727      C2737   1.267       .  A
O2728      V2735   1.906       .  S
O2728      C2738   1.266       .  A
O2729      V2735   1.885       .  S
O2729      C2739   1.260       .  A
O2730      V2735   1.884       .  S
O2730      C2740   1.261       .  A
O2731      V2736   1.911       .  S
O2731      C2740   1.268       .  A
O2733      V2736   1.883       .  S
O2733      C2738   1.261       .  A
V2735      V2736   2.087       .  T
C2737      C3013   1.479       .  S
C2738      C3169   1.472       .  S
C2740      C3076   1.480       .  S
O2741      V2749   1.917       .  S
O2741      C2751   1.268       .  A
O2742      C2752   1.267   1_655  A
O2743      V2749   1.894       .  S
O2743      C2753   1.262       .  A
O2745      V2750   1.913       .  S
O2745      C2754   1.268       .  A
O2746      V2750   1.910       .  S
O2746      C2753   1.269       .  A
O2747      V2750   1.892       .  S
O2748      V2750   1.893       .  S
O2748      C2751   1.263       .  A
V2749      V2750   2.083       .  T
C2751      C2992   1.488       .  S
C2752      C3004   1.479       .  S
C2753      C3136   1.491       .  S
C2754      C3028   1.494       .  S
O2755      V2763   1.907       .  S
O2755      C2765   1.267   1_455  A
O2756      V2763   1.910   1_655  S
O2756      C2766   1.267       .  A
O2757      V2763   1.885       .  S
O2757      C2767   1.260   1_455  A
O2758      V2763   1.880       .  S
O2758      C2768   1.259   1_455  A
O2759      V2764   1.910       .  S
O2759      C2768   1.267       .  A
O2760      V2764   1.907       .  S
O2760      C2767   1.267       .  A
O2761      V2764   1.889       .  S
O2761      C2766   1.262       .  A
O2762      V2764   1.892       .  S
O2762      C2765   1.263       .  A
V2763      V2764   2.087   1_455  T
C2765      C3001   1.483       .  S
C2766      C3580   1.481       .  S
C2767      C3016   1.469       .  S
C2768      C3124   1.470       .  S
O2769      V2777   1.913       .  S
O2769      C2779   1.269       .  A
O2770      V2777   1.912       .  S
O2770      C2780   1.268       .  A
O2771      V2777   1.896       .  S
O2771      C2781   1.263       .  A
O2772      V2777   1.895       .  S
O2772      C2782   1.262       .  A
O2773      V2778   1.910       .  S
O2773      C2782   1.267       .  A
O2774      V2778   1.912       .  S
O2774      C2781   1.268       .  A
O2775      V2778   1.883       .  S
O2775      C2780   1.261       .  A
O2776      V2778   1.885       .  S
O2776      C2779   1.262       .  A
V2777      V2778   2.082       .  T
C2779      C2965   1.489       .  S
C2780      C3460   1.486       .  S
C2781      C2989   1.489       .  S
C2782      C2977   1.478       .  S
O2783      C2793   1.267       .  A
O2784      V2791   1.912       .  S
O2784      C2794   1.269       .  A
O2785      V2791   1.880       .  S
O2785      C2795   1.258       .  A
O2787      V2792   1.918       .  S
O2787      C2796   1.269       .  A
O2788      V2792   1.917       .  S
O2788      C2795   1.270       .  A
O2789      V2792   1.894       .  S
O2789      C2794   1.262       .  A
O2790      V2792   1.894       .  S
V2791      V2792   2.085       .  T
C2793      C2980   1.481       .  S
C2794      C3328   1.488       .  S
C2795      C3421   1.482       .  S
C2796      C2953   1.487       .  S
O2797      V2805   1.915       .  S
O2798      V2805   1.910       .  S
O2798      C2808   1.267       .  A
O2799      V2805   1.889       .  S
O2799      C2809   1.261       .  A
O2800      V2805   1.892       .  S
O2801      V2806   1.902       .  S
O2801      C2810   1.266       .  A
O2802      V2806   1.908       .  S
O2803      V2806   1.887       .  S
O2804      V2806   1.888       .  S
O2804      C2807   1.261       .  A
C2807      C2968   1.481       .  S
C2808      C3388   1.475       .  S
C2809      C3145   1.484       .  S
C2810      C2941   1.474       .  S
O2811      V2819   1.903       .  S
O2811      C2821   1.267       .  A
O2812      V2819   1.905       .  S
O2812      C2822   1.266       .  A
O2813      V2819   1.886       .  S
O2813      C2823   1.260       .  A
O2814      V2819   1.885       .  S
O2814      C2824   1.260       .  A
O2816      V2820   1.909       .  S
O2816      C2823   1.268       .  A
O2817      V2820   1.882       .  S
O2817      C2822   1.260       .  A
O2818      V2820   1.886       .  S
O2818      C2821   1.260       .  A
V2819      V2820   2.086       .  T
C2821      C2956   1.473       .  S
C2822      C3364   1.469       .  S
C2823      C2929   1.484       .  S
C2824      C2944   1.478       .  S
O2825      V2833   1.917   1_554  S
O2825      C2835   1.269       .  A
O2826      V2833   1.911       .  S
O2826      C2836   1.269       .  A
O2827      V2833   1.885       .  S
O2827      C2837   1.260       .  A
O2828      V2833   1.891       .  S
O2828      C2838   1.261       .  A
O2829      V2834   1.922       .  S
O2829      C2838   1.271       .  A
O2830      V2834   1.915       .  S
O2830      C2837   1.269       .  A
O2831      V2834   1.883       .  S
O2831      C2836   1.259       .  A
O2832      V2834   1.882   1_554  S
O2832      C2835   1.261       .  A
V2833      V2834   2.084       .  T
C2835      C2908   1.487       .  S
C2836      C3253   1.472       .  S
C2837      C2917   1.484       .  S
C2838      C3052   1.492       .  S
O2839      V2847   1.908   1_554  S
O2839      C2849   1.267       .  A
O2840      V2847   1.902       .  S
O2840      C2850   1.267       .  A
O2841      V2847   1.893       .  S
O2841      C2851   1.262       .  A
O2843      V2848   1.913       .  S
O2843      C2852   1.268       .  A
O2844      V2848   1.907       .  S
O2844      C2851   1.267       .  A
O2845      V2848   1.886       .  S
O2845      C2850   1.260       .  A
O2846      V2848   1.885   1_554  S
O2846      C2849   1.260       .  A
V2847      V2848   2.087       .  T
C2849      C2893   1.470       .  S
C2850      C3244   1.481       .  S
C2851      C2920   1.477       .  S
O2853      V2861   1.918       .  S
O2854      V2861   1.919       .  S
O2854      C2864   1.269       .  A
O2855      V2861   1.894       .  S
O2856      V2861   1.897       .  S
O2856      C2866   1.261       .  A
O2857      C2866   1.270   1_455  A
O2858      V2862   1.902       .  S
O2858      C2865   1.267       .  A
O2859      C2864   1.259   1_455  A
O2860      V2862   1.886       .  S
O2860      C2863   1.259       .  A
C2863      C2905   1.474       .  S
C2864      C3289   1.476       .  S
C2865      C2881   1.479       .  S
C2866      C3544   1.495       .  S
O2867      V2875   1.906       .  S
O2867      C2877   1.266       .  A
O2868      V2875   1.902       .  S
O2868      C2878   1.267       .  A
O2869      V2875   1.887       .  S
O2869      C2879   1.262       .  A
O2870      V2875   1.887       .  S
O2870      C2880   1.262       .  A
O2871      V2876   1.907       .  S
O2871      C2880   1.266       .  A
O2872      V2876   1.907       .  S
O2872      C2879   1.266       .  A
O2873      V2876   1.892       .  S
O2873      C2878   1.261       .  A
O2874      V2876   1.894       .  S
O2874      C2877   1.263       .  A
V2875      V2876   2.084       .  T
C2877      C2884   1.477       .  S
C2878      C2932   1.481       .  S
C2879      C2896   1.484       .  S
C2880      C3316   1.484       .  S
C2881      C2882   1.402       .  A
C2881      C2886   1.418       .  A
C2882      C2883   1.394       .  A
C2882      H2891   1.084       .  S
C2883      C2884   1.412       .  A
C2883      S2887   1.794       .  S
C2884      C2885   1.402       .  A
C2885      C2886   1.400       .  A
C2885      H2892   1.084       .  S
S2887      H2890   1.407       .  S
S2888      H2889   1.408       .  S
C2893      C2894   1.404       .  A
C2893      C2898   1.408       .  A
C2894      C2895   1.399       .  A
C2894      H2903   1.084       .  S
C2895      C2896   1.415       .  A
C2895      S2899   1.801       .  S
C2896      C2897   1.409       .  A
C2897      C2898   1.397       .  A
S2899      H2902   1.401       .  S
S2900      H2901   1.403       .  S
C2905      C2906   1.406       .  A
C2905      C2910   1.403       .  A
C2906      C2907   1.408       .  A
C2906      H2915   1.084       .  S
C2907      C2908   1.415       .  A
C2907      S2911   1.805       .  S
C2908      C2909   1.405       .  A
C2909      C2910   1.391       .  A
C2909      H2916   1.080       .  S
C2910      S2912   1.794       .  S
S2911      H2914   1.407       .  S
S2912      H2913   1.408       .  S
C2917      C2918   1.404       .  A
C2917      C2922   1.420       .  A
C2918      C2919   1.403       .  A
C2918      H2927   1.084       .  S
C2919      C2920   1.416       .  A
C2919      S2923   1.804       .  S
C2920      C2921   1.398       .  A
C2921      C2922   1.396       .  A
C2921      H2928   1.084   1_556  S
C2922      S2924   1.801   1_556  S
S2923      H2926   1.406       .  S
S2924      H2925   1.404       .  S
C2929      C2930   1.403       .  A
C2929      C2934   1.418       .  A
C2930      C2931   1.400       .  A
C2930      H2939   1.084       .  S
C2931      C2932   1.417       .  A
C2931      S2935   1.801       .  S
C2932      C2933   1.401       .  A
C2933      C2934   1.395       .  A
C2933      H2940   1.084       .  S
C2934      S2936   1.799       .  S
S2935      H2938   1.408       .  S
S2936      H2937   1.402       .  S
C2941      C2942   1.400       .  A
C2941      C2946   1.415   1_655  A
C2942      C2943   1.396       .  A
C2942      H2951   1.084       .  S
C2943      C2944   1.418       .  A
C2943      S2947   1.805       .  S
C2945      H2952   1.084       .  S
S2947      H2950   1.408       .  S
S2948      H2949   1.407       .  S
C2953      C2954   1.408       .  A
C2954      H2963   1.076       .  S
C2955      C2956   1.404       .  A
C2955      S2959   1.805       .  S
C2956      C2957   1.406   1_655  A
C2957      C2958   1.400       .  A
C2957      H2964   1.084       .  S
C2958      S2960   1.800       .  S
S2959      H2962   1.405       .  S
S2960      H2961   1.400       .  S
C2965      C2966   1.410       .  A
C2965      C2970   1.415       .  A
C2966      C2967   1.402   1_655  A
C2966      H2975   1.082   1_655  S
C2967      C2968   1.408   1_455  A
C2967      S2971   1.802       .  S
C2968      C2969   1.405       .  A
C2969      C2970   1.401       .  A
C2969      H2976   1.084       .  S
C2970      S2972   1.802       .  S
S2971      H2974   1.407       .  S
S2972      H2973   1.408       .  S
C2977      C2978   1.401       .  A
C2977      C2982   1.413       .  A
C2978      C2979   1.400   1_655  A
C2978      H2987   1.084   1_655  S
C2979      C2980   1.417   1_455  A
C2979      S2983   1.798       .  S
C2980      C2981   1.401       .  A
C2981      C2982   1.398       .  A
C2981      H2988   1.084       .  S
C2982      S2984   1.795       .  S
S2984      H2985   1.408       .  S
C2989      C2990   1.407       .  A
C2989      C2994   1.414       .  A
C2990      C2991   1.404       .  A
C2990      H2999   1.084       .  S
C2991      C2992   1.415       .  A
C2991      S2995   1.798       .  S
C2992      C2993   1.406       .  A
C2993      C2994   1.401       .  A
C2993      H3000   1.084       .  S
C2994      S2996   1.800       .  S
S2995      H2998   1.401       .  S
S2996      H2997   1.405       .  S
C3001      C3002   1.407       .  A
C3002      C3003   1.399       .  A
C3002      H3011   1.084       .  S
C3003      C3004   1.411   1_655  A
C3003      S3007   1.800       .  S
C3005      C3006   1.402       .  A
C3005      H3012   1.084       .  S
C3006      S3008   1.802       .  S
S3007      H3010   1.407       .  S
S3008      H3009   1.407       .  S
C3014      C3015   1.397       .  A
C3014      H3023   1.084       .  S
C3015      C3016   1.408       .  A
C3015      S3019   1.804       .  S
C3016      C3017   1.403   1_655  A
C3017      C3018   1.398       .  A
C3017      H3024   1.084       .  S
S3019      H3022   1.406       .  S
S3020      H3021   1.408       .  S
C3025      C3030   1.408   1_455  A
C3026      C3027   1.405       .  A
C3026      H3035   1.084       .  S
C3027      C3028   1.419       .  A
C3027      S3031   1.798       .  S
C3029      C3030   1.394       .  A
C3029      H3036   1.084       .  S
C3030      S3032   1.793       .  S
S3031      H3034   1.407       .  S
S3032      H3033   1.408       .  S
C3037      C3038   1.409   1_455  A
C3037      C3042   1.417       .  A
C3038      C3039   1.399       .  A
C3038      H3047   1.084       .  S
C3039      C3040   1.410   1_655  A
C3039      S3043   1.801       .  S
C3040      C3041   1.406       .  A
C3041      C3042   1.407       .  A
C3042      S3044   1.807       .  S
S3043      H3046   1.407       .  S
S3044      H3045   1.407       .  S
C3049      C3050   1.399       .  A
C3049      C3054   1.419       .  A
C3050      C3051   1.399   1_565  A
C3050      H3059   1.084       .  S
C3051      C3052   1.420       .  A
C3051      S3055   1.795   1_556  S
C3052      C3053   1.404       .  A
C3053      C3054   1.404   1_545  A
C3053      H3060   1.084       .  S
C3054      S3056   1.802       .  S
S3055      H3058   1.407       .  S
S3056      H3057   1.408       .  S
C3061      C3062   1.404       .  A
C3061      C3066   1.408   1_655  A
C3062      C3063   1.398       .  A
C3062      H3071   1.084       .  S
C3063      C3064   1.417       .  A
C3063      S3067   1.804   1_556  S
C3064      C3065   1.408   1_655  A
C3065      C3066   1.397       .  A
C3065      H3072   1.084       .  S
C3066      S3068   1.799       .  S
S3067      H3070   1.400       .  S
S3068      H3069   1.407       .  S
C3073      C3074   1.409       .  A
C3073      C3078   1.413       .  A
C3074      C3075   1.401       .  A
C3074      H3083   1.084       .  S
C3075      C3076   1.413       .  A
C3075      S3079   1.803       .  S
C3076      C3077   1.406       .  A
C3077      C3078   1.397       .  A
C3077      H3084   1.084       .  S
C3078      S3080   1.800       .  S
S3079      H3082   1.407       .  S
S3080      H3081   1.404       .  S
C3085      C3086   1.408   1_655  A
C3085      C3090   1.416       .  A
C3086      C3087   1.402       .  A
C3086      H3095   1.083       .  S
C3087      C3088   1.407   1_455  A
C3087      S3091   1.805       .  S
C3088      C3089   1.401       .  A
C3089      C3090   1.397       .  A
C3089      H3096   1.084       .  S
C3090      S3092   1.801       .  S
S3091      H3094   1.407       .  S
S3092      H3093   1.408       .  S
C3097      C3098   1.404   1_455  A
C3097      C3102   1.408       .  A
C3098      C3099   1.397       .  A
C3098      H3107   1.085       .  S
C3099      C3100   1.414       .  A
C3099      S3103   1.798       .  S
C3100      C3101   1.411   1_655  A
C3101      C3102   1.402       .  A
C3101      H3108   1.080       .  S
S3103      H3106   1.408       .  S
S3104      H3105   1.407       .  S
C3109      C3110   1.399       .  A
C3109      C3114   1.411   1_655  A
C3110      C3111   1.393       .  A
C3110      H3119   1.085       .  S
C3111      C3112   1.411       .  A
C3111      S3115   1.784       .  S
C3112      C3113   1.409   1_655  A
C3113      C3114   1.402       .  A
C3113      H3120   1.084       .  S
C3114      S3116   1.799       .  S
S3115      H3118   1.407       .  S
S3116      H3117   1.407       .  S
C3121      C3122   1.411       .  A
C3121      C3126   1.420       .  A
C3122      C3123   1.399       .  A
C3122      H3131   1.083       .  S
C3123      C3124   1.408       .  A
C3123      S3127   1.801       .  S
C3124      C3125   1.400       .  A
C3125      C3126   1.395       .  A
C3125      H3132   1.084   1_655  S
C3126      S3128   1.797   1_655  S
S3127      H3130   1.406       .  S
S3128      H3129   1.394       .  S
C3133      C3134   1.401       .  A
C3133      C3138   1.416       .  A
C3134      C3135   1.402       .  A
C3134      H3143   1.084       .  S
C3135      C3136   1.422       .  A
C3135      S3139   1.802       .  S
C3136      C3137   1.405       .  A
C3137      C3138   1.400       .  A
C3137      H3144   1.084       .  S
C3138      S3140   1.805       .  S
S3139      H3142   1.403       .  S
S3140      H3141   1.407       .  S
C3145      C3146   1.404       .  A
C3145      C3150   1.416       .  A
C3146      C3147   1.404       .  A
C3146      H3155   1.083       .  S
C3147      C3148   1.417       .  A
C3147      S3151   1.807       .  S
C3148      C3149   1.401       .  A
C3149      C3150   1.395       .  A
C3149      H3156   1.084       .  S
C3150      S3152   1.798       .  S
S3151      H3154   1.407       .  S
S3152      H3153   1.401       .  S
C3157      C3158   1.401       .  A
C3157      C3162   1.419       .  A
C3158      C3159   1.393       .  A
C3158      H3167   1.084       .  S
C3159      C3160   1.412       .  A
C3159      S3163   1.799       .  S
C3160      C3161   1.400       .  A
C3161      C3162   1.401       .  A
C3161      H3168   1.084       .  S
C3162      S3164   1.803       .  S
S3163      H3166   1.407       .  S
S3164      H3165   1.408       .  S
C3169      C3170   1.401       .  A
C3169      C3174   1.410       .  A
C3170      C3171   1.393       .  A
C3170      H3179   1.085       .  S
C3171      C3172   1.411       .  A
C3171      S3175   1.789       .  S
C3172      C3173   1.410       .  A
C3173      C3174   1.401       .  A
C3173      H3180   1.084       .  S
C3174      S3176   1.803       .  S
S3175      H3178   1.406       .  S
S3176      H3177   1.407       .  S
C3181      C3182   1.399       .  A
C3181      C3186   1.420       .  A
C3182      C3183   1.399       .  A
C3182      H3191   1.082       .  S
C3183      C3184   1.419       .  A
C3183      S3187   1.800   1_556  S
C3184      C3185   1.405       .  A
C3185      C3186   1.404       .  A
C3185      H3192   1.084       .  S
S3187      H3190   1.406       .  S
S3188      H3189   1.407       .  S
C3193      C3194   1.406       .  A
C3193      C3198   1.417       .  A
C3194      C3195   1.405       .  A
C3194      H3203   1.084       .  S
C3195      C3196   1.415       .  A
C3195      S3199   1.800       .  S
C3196      C3197   1.391       .  A
C3197      C3198   1.390       .  A
C3197      H3204   1.085       .  S
C3198      S3200   1.783       .  S
S3199      H3202   1.406       .  S
S3200      H3201   1.408       .  S
C3205      C3206   1.401       .  A
C3205      C3210   1.412       .  A
C3206      C3207   1.405       .  A
C3206      H3215   1.083       .  S
C3207      C3208   1.420       .  A
C3207      S3211   1.809       .  S
C3208      C3209   1.405       .  A
C3209      C3210   1.399       .  A
C3209      H3216   1.084       .  S
C3210      S3212   1.802   1_655  S
S3211      H3214   1.407       .  S
S3212      H3213   1.407       .  S
C3217      C3218   1.408       .  A
C3217      C3222   1.416       .  A
C3218      C3219   1.398       .  A
C3218      H3227   1.071       .  S
C3219      C3220   1.407       .  A
C3219      S3223   1.800       .  S
C3220      C3221   1.405       .  A
C3221      C3222   1.402       .  A
C3221      H3228   1.083       .  S
C3222      S3224   1.800       .  S
S3223      H3226   1.406       .  S
S3224      H3225   1.401       .  S
C3229      C3230   1.401       .  A
C3229      C3234   1.410   1_556  A
C3230      C3231   1.395       .  A
C3230      H3239   1.085       .  S
C3231      C3232   1.410       .  A
C3231      S3235   1.793       .  S
C3232      C3233   1.408   1_556  A
C3233      C3234   1.403       .  A
C3233      H3240   1.084       .  S
C3234      S3236   1.800       .  S
S3235      H3238   1.408       .  S
S3236      H3237   1.406       .  S
C3241      C3242   1.399   1_655  A
C3242      C3243   1.403       .  A
C3242      H3251   1.083       .  S
C3243      S3247   1.810       .  S
C3244      C3245   1.404       .  A
C3245      C3246   1.393       .  A
C3245      H3252   1.084       .  S
C3246      S3248   1.805       .  S
S3247      H3250   1.407       .  S
S3248      H3249   1.407       .  S
C3253      C3254   1.394       .  A
C3253      C3258   1.415       .  A
C3254      C3255   1.395       .  A
C3254      H3263   1.085       .  S
C3255      C3256   1.420       .  A
C3255      S3259   1.791       .  S
C3256      C3257   1.405       .  A
C3257      C3258   1.402       .  A
C3257      H3264   1.083       .  S
C3258      S3260   1.804       .  S
S3259      H3262   1.408       .  S
S3260      H3261   1.407       .  S
C3265      C3266   1.402       .  A
C3265      C3270   1.413       .  A
C3266      C3267   1.406   1_545  A
C3266      H3275   1.084       .  S
C3267      C3268   1.419       .  A
C3267      S3271   1.803       .  S
C3268      C3269   1.397       .  A
C3269      C3270   1.394   1_565  A
C3269      H3276   1.085       .  S
C3270      S3272   1.790       .  S
S3271      H3274   1.407       .  S
S3272      H3273   1.407       .  S
C3277      C3278   1.410       .  A
C3277      C3282   1.414       .  A
C3278      C3279   1.399       .  A
C3278      H3287   1.084       .  S
C3279      C3280   1.409       .  A
C3279      S3283   1.803       .  S
C3280      C3281   1.405       .  A
C3281      C3282   1.398       .  A
C3281      H3288   1.084       .  S
C3282      S3284   1.802       .  S
S3283      H3286   1.407       .  S
S3284      H3285   1.408       .  S
C3289      C3290   1.400       .  A
C3289      C3294   1.414       .  A
C3290      C3291   1.403       .  A
C3290      H3299   1.084       .  S
C3291      C3292   1.421       .  A
C3291      S3295   1.803       .  S
C3292      C3293   1.402       .  A
C3293      C3294   1.397       .  A
C3293      H3300   1.084   1_655  S
C3294      S3296   1.803   1_655  S
S3295      H3298   1.407       .  S
S3296      H3297   1.406       .  S
C3301      C3302   1.400       .  A
C3301      C3306   1.415       .  A
C3302      C3303   1.406       .  A
C3302      H3311   1.083       .  S
C3303      C3304   1.423       .  A
C3303      S3307   1.810       .  S
C3304      C3305   1.404       .  A
C3305      C3306   1.400       .  A
C3305      H3312   1.084       .  S
C3306      S3308   1.802       .  S
S3307      H3310   1.407   1_655  S
S3308      H3309   1.406       .  S
C3313      C3314   1.403       .  A
C3313      C3318   1.406       .  A
C3314      C3315   1.397       .  A
C3314      H3323   1.084       .  S
C3315      C3316   1.417       .  A
C3315      S3319   1.802       .  S
C3316      C3317   1.411       .  A
C3317      C3318   1.398       .  A
C3317      H3324   1.084       .  S
C3318      S3320   1.804       .  S
S3319      H3322   1.393       .  S
S3320      H3321   1.407       .  S
C3325      C3326   1.400       .  A
C3325      C3330   1.419       .  A
C3326      C3327   1.399       .  A
C3326      H3335   1.084       .  S
C3327      C3328   1.419       .  A
C3327      S3331   1.797       .  S
C3328      C3329   1.403       .  A
C3329      C3330   1.402       .  A
C3329      H3336   1.084       .  S
C3330      S3332   1.803       .  S
S3331      H3334   1.407       .  S
S3332      H3333   1.406       .  S
C3337      C3338   1.396       .  A
C3337      C3342   1.413       .  A
C3338      C3339   1.396       .  A
C3338      H3347   1.084       .  S
C3339      C3340   1.423       .  A
C3339      S3343   1.800       .  S
C3340      C3341   1.403       .  A
C3341      C3342   1.396       .  A
C3341      H3348   1.084       .  S
C3342      S3344   1.802       .  S
S3343      H3346   1.397       .  S
S3344      H3345   1.407       .  S
C3349      C3350   1.404       .  A
C3349      C3354   1.418       .  A
C3350      C3351   1.401       .  A
C3350      H3359   1.084       .  S
C3351      C3352   1.416       .  A
C3351      S3355   1.804       .  S
C3352      C3353   1.399       .  A
C3353      C3354   1.396       .  A
C3353      H3360   1.083       .  S
C3354      S3356   1.799       .  S
S3355      H3358   1.407       .  S
S3356      H3357   1.408       .  S
C3361      C3362   1.405       .  A
C3361      C3366   1.418       .  A
C3362      C3363   1.399       .  A
C3362      H3371   1.083       .  S
C3363      C3364   1.411       .  A
C3363      S3367   1.810       .  S
C3364      C3365   1.400       .  A
C3365      C3366   1.398       .  A
C3365      H3372   1.084       .  S
C3366      S3368   1.804       .  S
S3367      H3370   1.407   1_655  S
S3368      H3369   1.408       .  S
C3373      C3374   1.405       .  A
C3373      C3378   1.410   1_556  A
C3374      C3375   1.402       .  A
C3374      H3383   1.084       .  S
C3375      C3376   1.413       .  A
C3375      S3379   1.802       .  S
C3376      C3377   1.405   1_556  A
C3377      C3378   1.398       .  A
C3377      H3384   1.084       .  S
S3379      H3382   1.401       .  S
S3380      H3381   1.401       .  S
C3385      C3386   1.410       .  A
C3385      C3390   1.417       .  A
C3386      C3387   1.400       .  A
C3386      H3395   1.084       .  S
C3387      C3388   1.410       .  A
C3387      S3391   1.804       .  S
C3388      C3389   1.403       .  A
C3389      C3390   1.398       .  A
S3391      H3394   1.407       .  S
S3392      H3393   1.399       .  S
C3397      C3398   1.403   1_554  A
C3397      C3402   1.419       .  A
C3398      C3399   1.404       .  A
C3398      H3407   1.084       .  S
C3401      C3402   1.400   1_455  A
C3401      H3408   1.084       .  S
C3402      S3404   1.801   1_655  S
S3403      H3406   1.407       .  S
S3404      H3405   1.408   1_455  S
C3409      C3410   1.401   1_554  A
C3409      C3414   1.413       .  A
C3410      C3411   1.398       .  A
C3410      H3419   1.084       .  S
C3411      C3412   1.419   1_556  A
C3411      S3415   1.802       .  S
C3412      C3413   1.404       .  A
C3413      C3414   1.398       .  A
C3413      H3420   1.084       .  S
C3414      S3416   1.800       .  S
S3415      H3418   1.407       .  S
S3416      H3417   1.407       .  S
C3421      C3422   1.404       .  A
C3421      C3426   1.420       .  A
C3422      C3423   1.405       .  A
C3422      H3431   1.083       .  S
C3423      C3424   1.414       .  A
C3423      S3427   1.808       .  S
C3424      C3425   1.398       .  A
C3425      C3426   1.397       .  A
C3425      H3432   1.084       .  S
C3426      S3428   1.805       .  S
S3427      H3430   1.407       .  S
S3428      H3429   1.408       .  S
C3433      C3434   1.406       .  A
C3433      C3438   1.409       .  A
C3434      C3435   1.400       .  A
C3434      H3443   1.083       .  S
C3435      C3436   1.406       .  A
C3435      S3439   1.802       .  S
C3436      C3437   1.406       .  A
C3437      C3438   1.403       .  A
C3437      H3444   1.083       .  S
C3438      S3440   1.802       .  S
S3439      H3442   1.407       .  S
S3440      H3441   1.407       .  S
C3445      C3446   1.403       .  A
C3445      C3450   1.420       .  A
C3446      C3447   1.398       .  A
C3446      H3455   1.084       .  S
C3447      C3448   1.412       .  A
C3447      S3451   1.801       .  S
C3448      C3449   1.398       .  A
C3449      C3450   1.397       .  A
C3449      H3456   1.085       .  S
C3450      S3452   1.799       .  S
S3451      H3454   1.406       .  S
S3452      H3453   1.401       .  S
C3457      C3458   1.405       .  A
C3457      C3462   1.408       .  A
C3458      C3459   1.399       .  A
C3458      H3467   1.084       .  S
C3459      C3460   1.417       .  A
C3459      S3463   1.803       .  S
C3460      C3461   1.411       .  A
C3461      C3462   1.398       .  A
C3461      H3468   1.084       .  S
C3462      S3464   1.803       .  S
S3463      H3466   1.394       .  S
S3464      H3465   1.407       .  S
C3469      C3470   1.401       .  A
C3469      C3474   1.419       .  A
C3470      C3471   1.401       .  A
C3470      H3479   1.084       .  S
C3471      C3472   1.423       .  A
C3471      S3475   1.803       .  S
C3472      C3473   1.405       .  A
C3473      C3474   1.405       .  A
C3473      H3480   1.082       .  S
C3474      S3476   1.809       .  S
S3475      H3478   1.390       .  S
S3476      H3477   1.407   1_655  S
C3481      C3482   1.405       .  A
C3481      C3486   1.408       .  A
C3482      C3483   1.404       .  A
C3482      H3491   1.084       .  S
C3483      C3484   1.411       .  A
C3483      S3487   1.801       .  S
C3484      C3485   1.402       .  A
C3485      C3486   1.396       .  A
C3485      H3492   1.081       .  S
C3486      S3488   1.802       .  S
S3487      H3490   1.405       .  S
S3488      H3489   1.403       .  S
C3493      C3494   1.400       .  A
C3493      C3498   1.416       .  A
C3494      C3495   1.402       .  A
C3494      H3503   1.083       .  S
C3495      C3496   1.419       .  A
C3495      S3499   1.810       .  S
C3496      C3497   1.401       .  A
C3497      C3498   1.398       .  A
C3497      H3504   1.084       .  S
C3498      S3500   1.804       .  S
S3499      H3502   1.407       .  S
S3500      H3501   1.407       .  S
C3505      C3506   1.402       .  A
C3505      C3510   1.418       .  A
C3506      C3507   1.402       .  A
C3506      H3515   1.084       .  S
C3507      C3508   1.422       .  A
C3507      S3511   1.802       .  S
C3508      C3509   1.403       .  A
C3509      C3510   1.401       .  A
C3509      H3516   1.082       .  S
S3511      H3514   1.408       .  S
S3512      H3513   1.405       .  S
C3517      C3518   1.403   1_655  A
C3517      C3522   1.413       .  A
C3518      C3519   1.400       .  A
C3518      H3527   1.084       .  S
C3519      C3520   1.412       .  A
C3520      C3521   1.407   1_455  A
C3521      C3522   1.404       .  A
C3521      H3528   1.084       .  S
C3522      S3524   1.801       .  S
S3523      H3526   1.406       .  S
S3524      H3525   1.402       .  S
C3529      C3530   1.400       .  A
C3529      C3534   1.413       .  A
C3530      C3531   1.405       .  A
C3530      H3539   1.083       .  S
C3531      C3532   1.420       .  A
C3531      S3535   1.809   1_655  S
C3532      C3533   1.404       .  A
C3533      C3534   1.398       .  A
C3533      H3540   1.084       .  S
C3534      S3536   1.803       .  S
S3535      H3538   1.407       .  S
S3536      H3537   1.407       .  S
C3541      C3542   1.404       .  A
C3541      C3546   1.425       .  A
C3542      C3543   1.402   1_565  A
C3542      H3551   1.084       .  S
C3543      C3544   1.421       .  A
C3543      S3547   1.798       .  S
C3544      C3545   1.401       .  A
C3545      C3546   1.400   1_545  A
C3545      H3552   1.084   1_655  S
C3546      S3548   1.803   1_655  S
S3547      H3550   1.396       .  S
S3548      H3549   1.389   1_455  S
C3553      C3554   1.407       .  A
C3553      C3558   1.408       .  A
C3554      C3555   1.404       .  A
C3554      H3563   1.083       .  S
C3555      C3556   1.415       .  A
C3555      S3559   1.808       .  S
C3556      C3557   1.411       .  A
C3557      C3558   1.400       .  A
C3557      H3564   1.084       .  S
C3558      S3560   1.802       .  S
S3559      H3562   1.407       .  S
S3560      H3561   1.407       .  S
C3565      C3566   1.406       .  A
C3565      C3570   1.420       .  A
C3566      C3567   1.399       .  A
C3566      H3575   1.084       .  S
C3567      C3568   1.412       .  A
C3567      S3571   1.804       .  S
C3568      C3569   1.399       .  A
C3569      C3570   1.399       .  A
C3569      H3576   1.084       .  S
C3570      S3572   1.800       .  S
S3571      H3574   1.406       .  S
S3572      H3573   1.402       .  S
C3577      C3578   1.405       .  A
C3577      C3582   1.412       .  A
C3578      C3579   1.400       .  A
C3578      H3587   1.084       .  S
C3579      C3580   1.413       .  A
C3579      S3583   1.799   1_655  S
C3580      C3581   1.406       .  A
C3581      C3582   1.400       .  A
C3581      H3588   1.084       .  S
C3582      S3584   1.797       .  S
S3583      H3586   1.404       .  S
S3584      H3585   1.404       .  S
C3589      C3590   1.405       .  A
C3589      C3594   1.423       .  A
C3590      C3591   1.401       .  A
C3590      H3599   1.084       .  S
C3591      C3592   1.414       .  A
C3591      S3595   1.801       .  S
C3592      C3593   1.399       .  A
C3593      C3594   1.399       .  A
C3593      H3600   1.084       .  S
C3594      S3596   1.801       .  S
S3595      H3598   1.407       .  S
S3596      H3597   1.401       .  S
C3601      C3602   1.398       .  A
C3601      C3606   1.408       .  A
C3602      C3603   1.390       .  A
C3602      H3611   1.085       .  S
C3603      C3604   1.412       .  A
C3603      S3607   1.785       .  S
C3604      C3605   1.413       .  A
C3605      C3606   1.402       .  A
C3605      H3612   1.083       .  S
C3606      S3608   1.803       .  S
S3607      H3610   1.408       .  S
S3608      H3609   1.406       .  S
C3613      C3614   1.404       .  A
C3614      H3623   1.084       .  S
C3615      C3616   1.417   1_455  A
C3615      S3619   1.805       .  S
C3616      C3617   1.402       .  A
C3617      C3618   1.399   1_545  A
C3617      H3624   1.084       .  S
C3618      S3620   1.804       .  S
S3619      H3622   1.407       .  S
C3625      C3626   1.406       .  A
C3625      C3630   1.415       .  A
C3626      C3627   1.391       .  A
C3626      H3635   1.083       .  S
C3627      C3628   1.406       .  A
C3627      S3631   1.791       .  S
C3628      C3629   1.408       .  A
C3629      C3630   1.405       .  A
C3629      H3636   1.084       .  S
C3630      S3632   1.801       .  S
S3631      H3634   1.408       .  S
S3632      H3633   1.407       .  S
C3637      C3638   1.400       .  A
C3637      C3642   1.415       .  A
C3638      C3639   1.398       .  A
C3638      H3647   1.084       .  S
C3639      C3640   1.418       .  A
C3639      S3643   1.802       .  S
C3640      C3641   1.403       .  A
C3641      C3642   1.400       .  A
C3641      H3648   1.084       .  S
C3642      S3644   1.804       .  S
S3643      H3646   1.408       .  S
S3644      H3645   1.407       .  S
