geometry optimzed in LAMMPS
_audit_creation_date              2020-12-01 
_audit_creation_method            'lammps2cif' 
_symmetry_space_group_name_H-M    'P1' 
_symmetry_Int_Tables_number       1 
_symmetry_cell_setting            triclinic 
loop_ 
_symmetry_equiv_pos_as_xyz 
  x,y,z 
_cell_length_a                    25.43970342 
_cell_length_b                    39.2573216373869 
_cell_length_c                    47.39651688244637 
_cell_angle_alpha                 89.4419958690738 
_cell_angle_beta                  100.63851096022093 
_cell_angle_gamma                 90.13670256249382 
loop_ 
_atom_site_label 
_atom_site_type_symbol 
_atom_site_fract_x 
_atom_site_fract_y 
_atom_site_fract_z 
_atom_site_charge 
O1          O  0.18556049  0.62976105  0.35691180    -0.85900
O2          O  0.26512253  0.58394082  0.37283541    -0.82900
C3          C  0.24168600  0.55531818  0.37297912     0.97600
O4          O  0.21876535  0.54219289  0.34977322    -0.83000
O5          O  0.17191255  0.53584663  0.29262734    -0.85600
C6          C  0.12505372  0.54768711  0.28951587     1.02100
O7          O  0.11791894  0.57807208  0.29597403    -0.78400
O8          O  0.13815736  0.64313856  0.31484088    -0.78600
C9          C  0.14286115  0.64062662  0.34191527     1.02000
O10         O  0.24708540  0.66633356  0.32043915    -0.85900
O11         O  0.32444415  0.61608475  0.33359374    -0.83000
C12         C  0.34622841  0.58715000  0.33663371     0.97600
O13         O  0.31774268  0.56052953  0.33365429    -0.83000
O14         O  0.26631099  0.56165048  0.27697300    -0.85600
C15         C  0.23251239  0.56862191  0.25468376     1.02100
O16         O  0.19024722  0.58502187  0.25632454    -0.78400
O17         O  0.21640708  0.64809550  0.27703552    -0.78600
C18         C  0.23917076  0.67075649  0.29339387     1.02000
Cr19       Cr  0.25313540  0.62231955  0.34363402     1.93700
Cr20       Cr  0.24211798  0.55340156  0.31349700     1.93200
Cr21       Cr  0.16984773  0.61263443  0.28824260     1.39100
O22         O  0.22167013  0.59625700  0.31508050    -1.23600
O23         O  0.82541783  0.62525527  0.38458064    -0.85900
O24         O  0.73719625  0.58650748  0.36780675    -0.82900
C25         C  0.75574012  0.55645604  0.36757135     0.97600
O26         O  0.77471582  0.54140428  0.39079895    -0.83000
O27         O  0.81774668  0.52980821  0.44825189    -0.85600
C28         C  0.86636664  0.53822356  0.45086557     1.02100
O29         O  0.87822247  0.56757190  0.44340944    -0.78400
O30         O  0.87474793  0.63422523  0.42684717    -0.78600
C31         C  0.86941578  0.63355620  0.39969576     1.02000
O32         O  0.77215103  0.66622194  0.42123082    -0.85900
O33         O  0.68508914  0.62331493  0.40787936    -0.83000
C34         C  0.65684053  0.59681976  0.40399643     0.97600
O35         O  0.67898492  0.56781029  0.40587149    -0.83000
O36         O  0.72852864  0.56338117  0.46299861    -0.85600
C37         C  0.76320610  0.56752108  0.48540770     1.02100
O38         O  0.80873693  0.58024224  0.48410709    -0.78400
O39         O  0.79899719  0.64560650  0.46459339    -0.78600
C40         C  0.78194663  0.67010852  0.44827690     1.02000
Cr41       Cr  0.75669077  0.62336687  0.39758688     1.93700
Cr42       Cr  0.75213418  0.55377220  0.42672819     1.93200
Cr43       Cr  0.83608044  0.60617989  0.45272714     1.39100
O44         O  0.78144170  0.59473207  0.42586879    -1.23600
O45         O  0.77418116  0.33481135  0.17263817    -0.85900
O46         O  0.68537280  0.37629077  0.15911026    -0.82900
C47         C  0.65654261  0.40254101  0.15539343     0.97600
O48         O  0.67783169  0.43189085  0.15778941    -0.83000
O49         O  0.73155262  0.43794011  0.21428152    -0.85600
C50         C  0.76799482  0.43460913  0.23608713     1.02100
O51         O  0.81274723  0.42165100  0.23403458    -0.78400
O52         O  0.79798801  0.35602468  0.21571373    -0.78600
C53         C  0.78303332  0.33110798  0.19978932     1.02000
O54         O  0.82493565  0.37665614  0.13475838    -0.85900
O55         O  0.73377487  0.41405857  0.11790672    -0.83000
C56         C  0.75016438  0.44461103  0.11714165     0.97600
O57         O  0.77085398  0.45931251  0.13995293    -0.83000
O58         O  0.81905984  0.47095027  0.19581142    -0.85600
C59         C  0.86745860  0.46234928  0.19738389     1.02100
O60         O  0.87871552  0.43241513  0.19153495    -0.78400
O61         O  0.87232749  0.36531940  0.17719123    -0.78600
C62         C  0.86802746  0.36691679  0.15014797     1.02000
Cr63       Cr  0.75636288  0.37743407  0.14822720     1.93700
Cr64       Cr  0.75176562  0.44687358  0.17679350     1.93200
Cr65       Cr  0.83627043  0.39459816  0.20266803     1.39100
O66         O  0.78109287  0.40612217  0.17607244    -1.23600
O67         O  0.24433398  0.33450084  0.07289262    -0.85900
O68         O  0.32393795  0.38297515  0.08473433    -0.82900
C69         C  0.34685854  0.41154939  0.08631211     0.97600
O70         O  0.31949271  0.43866407  0.08307661    -0.83000
O71         O  0.26318473  0.43873314  0.02737979    -0.85600
C72         C  0.22707188  0.43295767  0.50592647     1.02100
O73         O  0.18469981  0.41735049  0.50889666    -0.78400
O74         O  0.21293592  0.35422728  0.02968728    -0.78600
C75         C  0.23588462  0.33107787  0.04577295     1.02000
O76         O  0.18642292  0.37186577  0.11044121    -0.85900
O77         O  0.26902335  0.41626356  0.12480285    -0.83000
C78         C  0.24739065  0.44542968  0.12474717     0.97600
O79         O  0.22361162  0.45864396  0.10161538    -0.83000
O80         O  0.17163730  0.46542362  0.04577400    -0.85600
C81         C  0.12471600  0.45401883  0.04453533     1.02100
O82         O  0.11767737  0.42349939  0.05119239    -0.78400
O83         O  0.13870352  0.35758597  0.06901791    -0.78600
C84         C  0.14361751  0.36063204  0.09596515     1.02000
Cr85       Cr  0.25339948  0.37811472  0.09600739     1.93700
Cr86       Cr  0.24299753  0.44712081  0.06476673     1.93200
Cr87       Cr  0.16768797  0.38906559  0.04176577     1.39100
O88         O  0.22150526  0.40466299  0.06749363    -1.23600
O89         O  0.74773506  0.83341034  0.07134161    -0.85900
O90         O  0.82355481  0.88445248  0.08519566    -0.82900
C91         C  0.84405517  0.91381246  0.08817105     0.97600
O92         O  0.81433627  0.93985834  0.08615677    -0.83000
O93         O  0.76333540  0.93942476  0.03040929    -0.85600
C94         C  0.73020815  0.93385999  0.50780942     1.02100
O95         O  0.68691372  0.91795437  0.50886714    -0.78400
O96         O  0.71695482  0.85366333  0.02820568    -0.78600
C97         C  0.74041327  0.83051343  0.04420092     1.02000
O98         O  0.68521937  0.86664895  0.10879504    -0.85900
O99         O  0.76416347  0.91323312  0.12513234    -0.83000
C100        C  0.74069455  0.94169836  0.12569812     0.97600
O101        O  0.71481653  0.95473452  0.10291496    -0.83000
O102        O  0.66590289  0.96287480  0.04566752    -0.85600
C103        C  0.62010001  0.94955244  0.04421150     1.02100
O104        O  0.61616873  0.91881007  0.05074231    -0.78400
O105        O  0.63950768  0.85352089  0.06648822    -0.78600
C106        C  0.64299930  0.85564051  0.09349475     1.02000
Cr107      Cr  0.75267914  0.87604524  0.09548613     1.93700
Cr108      Cr  0.73805486  0.94608620  0.06643440     1.93200
Cr109      Cr  0.66876887  0.88691736  0.04052883     1.39100
O110        O  0.71999162  0.90280756  0.06749110    -1.23600
O111        O  0.27042211  0.83869617  0.17029672    -0.85900
O112        O  0.18481427  0.88265268  0.15642596    -0.82900
C113        C  0.15678393  0.90924586  0.15277063     0.97600
O114        O  0.17917533  0.93828034  0.15502915    -0.83000
O115        O  0.23022566  0.94199094  0.21230746    -0.85600
C116        C  0.26523091  0.93755101  0.23461527     1.02100
O117        O  0.30985406  0.92383188  0.23314489    -0.78400
O118        O  0.29472450  0.85883090  0.21366560    -0.78600
C119        C  0.27842747  0.83445663  0.19740674     1.02000
O120        O  0.32553747  0.88004398  0.13380921    -0.85900
O121        O  0.23790240  0.91988547  0.11648158    -0.83000
C122        C  0.25682596  0.94992351  0.11630310     0.97600
O123        O  0.27586549  0.96429898  0.13956303    -0.83000
O124        O  0.32097641  0.97391105  0.19647725    -0.85600
C125        C  0.36923259  0.96460493  0.19876842     1.02100
O126        O  0.37967518  0.93475911  0.19230767    -0.78400
O127        O  0.37234496  0.86812102  0.17625880    -0.78600
C128        C  0.36827014  0.86969853  0.14915674     1.02000
Cr129      Cr  0.25639012  0.88225512  0.14641759     1.93700
Cr130      Cr  0.25348191  0.95139897  0.17562442     1.93200
Cr131      Cr  0.33505772  0.89721250  0.20182572     1.39100
O132        O  0.28139462  0.91010853  0.17477122    -1.23600
O133        O  0.33249465  0.13320409  0.38183492    -0.85900
O134        O  0.24543755  0.09234871  0.36582117    -0.82900
C135        C  0.26356583  0.06220149  0.36539147     0.97600
O136        O  0.28595532  0.04789097  0.38835104    -0.83000
O137        O  0.33692994  0.03841231  0.44478521    -0.85600
C138        C  0.38434125  0.04882987  0.44530036     1.02100
O139        O  0.39260002  0.07914059  0.43880110    -0.78400
O140        O  0.37972866  0.14587785  0.42376052    -0.78600
C141        C  0.37544327  0.14360550  0.39676441     1.02000
O142        O  0.27767270  0.17233739  0.41963474    -0.85900
O143        O  0.19373432  0.12738248  0.40655284    -0.83000
C144        C  0.16704859  0.10020670  0.40339616     0.97600
O145        O  0.19093110  0.07165634  0.40624670    -0.83000
O146        O  0.24608990  0.06804445  0.46254254    -0.85600
C147        C  0.28212366  0.07213389  0.48434215     1.02100
O148        O  0.32623278  0.08612218  0.48199914    -0.78400
O149        O  0.30491800  0.15096377  0.46273405    -0.78600
C150        C  0.28572280  0.17532775  0.44681807     1.02000
Cr151      Cr  0.26445397  0.12947423  0.39555580     1.93700
Cr152      Cr  0.26675513  0.05964156  0.42528487     1.93200
Cr153      Cr  0.34679189  0.11468419  0.44989617     1.39100
O154        O  0.29233343  0.10140921  0.42365506    -1.23600
O155        O  0.69172926  0.12654318  0.35760739    -0.85900
O156        O  0.76809415  0.07876834  0.37421221    -0.82900
C157        C  0.74082564  0.05138469  0.37227878     0.97600
O158        O  0.72257231  0.03859798  0.34827857    -0.83000
O159        O  0.68087869  0.03355689  0.29116844    -0.85600
C160        C  0.63399107  0.04528439  0.28869114     1.02100
O161        O  0.62715755  0.07534333  0.29615610    -0.78400
O162        O  0.64696243  0.14066425  0.31512811    -0.78600
C163        C  0.65050209  0.13868123  0.34211814     1.02000
O164        O  0.75732051  0.16260566  0.32285926    -0.85900
O165        O  0.83250209  0.11187828  0.33688427    -0.83000
C166        C  0.85428547  0.08301919  0.33985333     0.97600
O167        O  0.82554546  0.05647858  0.33599543    -0.83000
O168        O  0.77747678  0.05969511  0.27808435    -0.85600
C169        C  0.74378585  0.06684821  0.25574049     1.02100
O170        O  0.70123609  0.08291142  0.25741248    -0.78400
O171        O  0.72702960  0.14518565  0.27906424    -0.78600
C172        C  0.75002498  0.16737171  0.29583150     1.02000
Cr173      Cr  0.76032725  0.11824471  0.34559724     1.93700
Cr174      Cr  0.75048701  0.05035364  0.31374585     1.93200
Cr175      Cr  0.67952847  0.11000507  0.28912018     1.39100
O176        O  0.73026310  0.09312579  0.31609650    -1.23600
C177        C  0.60538465  0.14906700  0.35593267    -0.05800
C178        C  0.61324892  0.15258643  0.38595828    -0.05700
C179        C  0.56975058  0.15612910  0.39990471    -0.23900
C180        C  0.51743677  0.15570205  0.38413934     0.18300
C181        C  0.50920938  0.15396177  0.35383215     0.15600
C182        C  0.55320380  0.15115885  0.33989702    -0.18900
C183        C  0.45699680  0.15302740  0.33804958    -0.20700
C184        C  0.41346944  0.15168877  0.35215352    -0.13300
C185        C  0.42111927  0.15158919  0.38234736     0.03400
C186        C  0.47332183  0.15494706  0.39821274    -0.25400
H187        H  0.65307815  0.15130256  0.39883743     0.08500
H188        H  0.57696891  0.15766301  0.42311487     0.12100
H189        H  0.54652923  0.14827859  0.31678136     0.12000
H190        H  0.44985582  0.15186072  0.31482029     0.11800
H191        H  0.37373776  0.14936873  0.33933471     0.12300
H192        H  0.47988871  0.15478429  0.42147274     0.14200
C193        C  0.10822231  0.10214329  0.39369470    -0.05800
C194        C  0.08300702  0.13413509  0.38923155    -0.05700
C195        C  0.02874301  0.13668429  0.37724973    -0.23900
C196        C  0.99840253  0.10729657  0.36948982     0.18300
C197        C  0.02290591  0.07494788  0.37416451     0.15600
C198        C  0.07761187  0.07254693  0.38628332    -0.18900
C199        C  0.99228531  0.04559330  0.36643872    -0.20700
C200        C  0.93781749  0.04823954  0.35457325    -0.13300
C201        C  0.91292654  0.08029430  0.35005159     0.03400
C202        C  0.94385894  0.10977511  0.35734111    -0.25400
H203        H  0.10549761  0.15739691  0.39450408     0.08500
H204        H  0.01060450  0.16169399  0.37385682     0.12100
H205        H  0.09649912  0.04772822  0.38935053     0.12000
H206        H  0.01033214  0.02056102  0.36981244     0.11800
H207        H  0.91498572  0.02510669  0.34931740     0.12300
H208        H  0.92530717  0.13469136  0.35414266     0.14200
C209        C  0.41354117  0.98659164  0.21265571    -0.05800
C210        C  0.40369503  0.01891828  0.22306131    -0.05700
C211        C  0.44475967  0.03691883  0.24044445    -0.23900
C212        C  0.49600634  0.02260848  0.24801775     0.18300
C213        C  0.50631158  0.99041204  0.23716607     0.15600
C214        C  0.46546121  0.97297837  0.21926497    -0.18900
C215        C  0.55704670  0.97570021  0.24485773    -0.20700
C216        C  0.59767984  0.99292486  0.26288736    -0.13300
C217        C  0.58844413  0.02526713  0.27347434     0.03400
C218        C  0.53716747  0.03986008  0.26616704    -0.25400
H219        H  0.36391814  0.02980477  0.21852276     0.08500
H220        H  0.43612668  0.06161858  0.24851594     0.12100
H221        H  0.47370192  0.94797697  0.21158249     0.12000
H222        H  0.56543474  0.95095491  0.23676685     0.11800
H223        H  0.63686956  0.98124847  0.26788978     0.12300
H224        H  0.52963857  0.06492893  0.27394911     0.14200
C225        C  0.25781643  0.95305818  0.26181424    -0.05800
C226        C  0.27863850  0.93733829  0.28819583    -0.05700
C227        C  0.28081576  0.95499387  0.31387803    -0.23900
C228        C  0.26397674  0.98906871  0.31344296     0.18300
C229        C  0.24180667  0.00484304  0.28702946     0.15600
C230        C  0.23778117  0.98647000  0.26144162    -0.18900
C231        C  0.22628189  0.03916722  0.28654176    -0.20700
C232        C  0.23353638  0.05791204  0.31193577    -0.13300
C233        C  0.25616917  0.04263640  0.33830175     0.03400
C234        C  0.27063850  0.00794625  0.33885280    -0.25400
H235        H  0.29463398  0.91173605  0.28883580     0.08500
H236        H  0.29778573  0.94248869  0.33396549     0.12100
H237        H  0.22268524  0.99899865  0.24107297     0.12000
H238        H  0.20934693  0.05168112  0.26645268     0.11800
H239        H  0.22166958  0.08443437  0.31090474     0.12300
H240        H  0.28778465  0.99565024  0.35902078     0.14200
C241        C  0.25497408  0.96913791  0.08902247    -0.05800
C242        C  0.23219883  0.95466097  0.06258946    -0.05700
C243        C  0.23020140  0.97302279  0.03698511    -0.23900
C244        C  0.25133480  0.00609448  0.03731836     0.18300
C245        C  0.27444000  0.02096616  0.06371853     0.15600
C246        C  0.27571491  0.00253449  0.08936320    -0.18900
C247        C  0.29698516  0.05369890  0.06393601    -0.20700
C248        C  0.29830587  0.07102787  0.03812305    -0.13300
C249        C  0.27553991  0.05634535  0.01182337     0.03400
C250        C  0.25114788  0.02414175  0.01162365    -0.25400
H251        H  0.21587252  0.92911352  0.06168593     0.08500
H252        H  0.21260935  0.96120344  0.01687311     0.12100
H253        H  0.29349407  0.01411713  0.10955955     0.12000
H254        H  0.31493434  0.06546970  0.08400766     0.11800
H255        H  0.31759142  0.09570065  0.03864375     0.12300
H256        H  0.23447270  0.01235547  0.99132781     0.14200
C257        C  0.57155309  0.96783433  0.03059399    -0.05800
C258        C  0.52217113  0.96070237  0.03859688    -0.05700
C259        C  0.47482015  0.97390275  0.02257525    -0.23900
C260        C  0.47610522  0.99362191  0.99787176     0.18300
C261        C  0.52573974  0.00069846  0.48964267     0.15600
C262        C  0.57311751  0.98820256  0.50629425    -0.18900
C263        C  0.52719849  0.02010507  0.46484914    -0.20700
C264        C  0.48017321  0.03380615  0.44908094    -0.13300
C265        C  0.43086764  0.02784513  0.45757240     0.03400
C266        C  0.42884124  0.00696867  0.48157728    -0.25400
H267        H  0.52023161  0.94444852  0.05698168     0.08500
H268        H  0.43717522  0.96822107  0.02921231     0.12100
H269        H  0.61101853  0.99303121  0.49961241     0.12000
H270        H  0.56486642  0.02552470  0.45813767     0.11800
H271        H  0.48251053  0.05017993  0.43081865     0.12300
H272        H  0.39104534  0.00290413  0.98859393     0.14200
C273        C  0.73073023  0.03290023  0.39773615    -0.05800
C274        C  0.67772233  0.02548975  0.40013161    -0.05700
C275        C  0.66672426  0.00318399  0.42141132    -0.23900
C276        C  0.70868523  0.98734522  0.44022647     0.18300
C277        C  0.76227738  0.99474278  0.43790666     0.15600
C278        C  0.77298730  0.01779870  0.41683356    -0.18900
C279        C  0.80420544  0.97876368  0.45658265    -0.20700
C280        C  0.79330489  0.95684348  0.47812436    -0.13300
C281        C  0.74030555  0.95013800  0.48118204     0.03400
C282        C  0.69802421  0.96474617  0.46163632    -0.25400
H283        H  0.64477573  0.03652110  0.38507256     0.08500
H284        H  0.62546154  0.99788308  0.42283245     0.12100
H285        H  0.81388869  0.02284336  0.41445354     0.12000
H286        H  0.84544994  0.98390230  0.45502103     0.11800
H287        H  0.82648588  0.94603199  0.49315148     0.12300
H288        H  0.65707867  0.96015169  0.46413925     0.14200
C289        C  0.74881750  0.05173861  0.22809479    -0.05800
C290        C  0.71917985  0.06515593  0.20246996    -0.05700
C291        C  0.71302950  0.04660962  0.17712335    -0.23900
C292        C  0.73553720  0.01406590  0.17718256     0.18300
C293        C  0.76702695  0.00085765  0.20261430     0.15600
C294        C  0.77432774  0.02007561  0.22778831    -0.18900
C295        C  0.78878077  0.96807334  0.20273468    -0.20700
C296        C  0.77912723  0.94843560  0.17790293    -0.13300
C297        C  0.74766495  0.96130170  0.15254198     0.03400
C298        C  0.72612445  0.99426535  0.15237378    -0.25400
H299        H  0.69886285  0.08939389  0.20233302     0.08500
H300        H  0.68895191  0.05714453  0.15776515     0.12100
H301        H  0.79643991  0.00923410  0.24757851     0.12000
H302        H  0.81292415  0.95753370  0.22206967     0.11800
H303        H  0.79670956  0.92328343  0.17849837     0.12300
H304        H  0.70214267  0.00464985  0.13290926     0.14200
C305        C  0.59658024  0.84765389  0.10744301    -0.05800
C306        C  0.60402916  0.84369697  0.13749412    -0.05700
C307        C  0.56039470  0.84387872  0.15169082    -0.23900
C308        C  0.50836474  0.84859831  0.13618666     0.18300
C309        C  0.50017812  0.85073842  0.10586426     0.15600
C310        C  0.54413876  0.84973301  0.09167447    -0.18900
C311        C  0.44843419  0.85584476  0.09028752    -0.20700
C312        C  0.40567581  0.86054942  0.10454752    -0.13300
C313        C  0.41339398  0.86007837  0.13477312     0.03400
C314        C  0.46486361  0.85298192  0.15048135    -0.25400
H315        H  0.64395475  0.84196588  0.15021118     0.08500
H316        H  0.56762880  0.84192548  0.17490547     0.12100
H317        H  0.53772928  0.85316663  0.06856624     0.12000
H318        H  0.44126426  0.85741754  0.06705231     0.11800
H319        H  0.36657148  0.86561105  0.09175073     0.12300
H320        H  0.47157108  0.85248067  0.17373952     0.14200
C321        C  0.90262011  0.91800166  0.09658829    -0.05800
C322        C  0.92671676  0.94982403  0.09368196    -0.05700
C323        C  0.98122386  0.95479043  0.10433706    -0.23900
C324        C  0.01244336  0.92814241  0.11846943     0.18300
C325        C  0.98854605  0.89601166  0.12126072     0.15600
C326        C  0.93409875  0.89105915  0.11006474    -0.18900
C327        C  0.01932894  0.86937477  0.13551546    -0.20700
C328        C  0.07351886  0.87424404  0.14651859    -0.13300
C329        C  0.09811946  0.90588283  0.14362812     0.03400
C330        C  0.06708956  0.93294653  0.12977488    -0.25400
H331        H  0.90321141  0.97102395  0.08344040     0.08500
H332        H  0.99875170  0.97957810  0.10188862     0.12100
H333        H  0.91585042  0.86653843  0.11275664     0.12000
H334        H  0.00159665  0.84464827  0.13797005     0.11800
H335        H  0.09645094  0.85297224  0.15704015     0.12300
H336        H  0.08566332  0.95736510  0.12713300     0.14200
C337        C  0.27432780  0.20747967  0.46068836    -0.05800
C338        C  0.25046311  0.23530800  0.44443930    -0.05700
C339        C  0.23922354  0.26519391  0.45801999    -0.23900
C340        C  0.25163841  0.26769571  0.48806440     0.18300
C341        C  0.27611204  0.24006775  0.00462759     0.15600
C342        C  0.28733280  0.21023582  0.49086401    -0.18900
C343        C  0.28850485  0.24263479  0.03468873    -0.20700
C344        C  0.27596964  0.27224499  0.04829021    -0.13300
C345        C  0.25099378  0.29974027  0.03201968     0.03400
C346        C  0.23946595  0.29726842  0.50181116    -0.25400
H347        H  0.24016152  0.23389465  0.42126849     0.08500
H348        H  0.22047931  0.28627029  0.44504047     0.12100
H349        H  0.30596851  0.18906686  0.00378076     0.12000
H350        H  0.30747367  0.22163677  0.04768246     0.11800
H351        H  0.28546319  0.27353460  0.07148710     0.12300
H352        H  0.22041231  0.31827675  0.48883905     0.14200
C353        C  0.77792152  0.29737695  0.21331794    -0.05800
C354        C  0.76127608  0.26871292  0.19650877    -0.05700
C355        C  0.75560267  0.23714418  0.20949698    -0.23900
C356        C  0.76625149  0.23376182  0.23952700     0.18300
C357        C  0.78427260  0.26212697  0.25667263     0.15600
C358        C  0.79023248  0.29368129  0.24347215    -0.18900
C359        C  0.79479902  0.25860570  0.28673594    -0.20700
C360        C  0.78537788  0.22753786  0.29973703    -0.13300
C361        C  0.76569213  0.19949114  0.28285772     0.03400
C362        C  0.75764045  0.20268900  0.25267336    -0.25400
H363        H  0.75213261  0.27074918  0.17331548     0.08500
H364        H  0.74199583  0.21550696  0.19607132     0.12100
H365        H  0.80367184  0.31546202  0.25677079     0.12000
H366        H  0.80902062  0.28010288  0.30019180     0.11800
H367        H  0.79218252  0.22571939  0.32293892     0.12300
H368        H  0.74298208  0.18123898  0.23923190     0.14200
C369        C  0.59832864  0.39895673  0.14525529    -0.05800
C370        C  0.57260586  0.36767882  0.14795822    -0.05700
C371        C  0.51854956  0.36341486  0.13597758    -0.23900
C372        C  0.48946410  0.39025591  0.12081871     0.18300
C373        C  0.51508363  0.42174473  0.11788466     0.15600
C374        C  0.56912803  0.42595115  0.13025514    -0.18900
C375        C  0.48620778  0.44856987  0.10266122    -0.20700
C376        C  0.43190472  0.44468234  0.09131653    -0.13300
C377        C  0.40563050  0.41379082  0.09469679     0.03400
C378        C  0.43501569  0.38636882  0.10897894    -0.25400
H379        H  0.59444568  0.34640673  0.15917406     0.08500
H380        H  0.49959120  0.33909604  0.13844157     0.12100
H381        H  0.58877662  0.44999086  0.12756019     0.12000
H382        H  0.50534293  0.47278764  0.10003154     0.11800
H383        H  0.41012768  0.46615204  0.08039231     0.12300
H384        H  0.41509428  0.36250681  0.11193757     0.14200
C385        C  0.09828839  0.35299729  0.11064136    -0.05800
C386        C  0.10584176  0.35371702  0.14081433    -0.05700
C387        C  0.06211962  0.35325942  0.15481702    -0.23900
C388        C  0.00995715  0.35253810  0.13890072     0.18300
C389        C  0.00193613  0.35011584  0.10865009     0.15600
C390        C  0.04613703  0.34981699  0.09474698    -0.18900
C391        C  0.94978898  0.35003319  0.09268734    -0.20700
C392        C  0.90614975  0.35418979  0.10638523    -0.13300
C393        C  0.91374861  0.35798767  0.13635173     0.03400
C394        C  0.96580965  0.35599943  0.15259269    -0.25400
H395        H  0.14558550  0.35605302  0.15361757     0.08500
H396        H  0.06907888  0.35496756  0.17801661     0.12100
H397        H  0.03968434  0.34946327  0.07149207     0.12000
H398        H  0.94282996  0.34806715  0.06950501     0.11800
H399        H  0.86642100  0.35533405  0.09338354     0.12300
H400        H  0.97223894  0.35900300  0.17569171     0.14200
C401        C  0.77447302  0.70352247  0.46138216    -0.05800
C402        C  0.75047180  0.73095942  0.44462009    -0.05700
C403        C  0.74137980  0.76180704  0.45746140    -0.23900
C404        C  0.75600969  0.76571804  0.48730629     0.18300
C405        C  0.78149351  0.73868132  0.50430379     0.15600
C406        C  0.79076747  0.70788898  0.49125169    -0.18900
C407        C  0.79609171  0.74261773  0.03415621    -0.20700
C408        C  0.78377319  0.77267519  0.04719881    -0.13300
C409        C  0.75703541  0.79940505  0.03059300     0.03400
C410        C  0.74434449  0.79590334  0.00049543    -0.25400
H411        H  0.73789500  0.72839928  0.42163371     0.08500
H412        H  0.72201253  0.78240343  0.44410678     0.12100
H413        H  0.80985284  0.68711460  0.50451108     0.12000
H414        H  0.81602305  0.72217566  0.04748408     0.11800
H415        H  0.79442065  0.77477852  0.07031525     0.12300
H416        H  0.72403510  0.81633163  0.48728296     0.14200
C417        C  0.75292881  0.53800058  0.34024686    -0.05800
C418        C  0.73356874  0.55411034  0.31378136    -0.05700
C419        C  0.72978323  0.53622479  0.28811905    -0.23900
C420        C  0.74546147  0.50195749  0.28849373     0.18300
C421        C  0.76546630  0.48558733  0.31495915     0.15600
C422        C  0.76883250  0.50362908  0.34059790    -0.18900
C423        C  0.78269513  0.45161225  0.31530768    -0.20700
C424        C  0.78166425  0.43432984  0.28957010    -0.13300
C425        C  0.76173663  0.45039179  0.26323983     0.03400
C426        C  0.74283527  0.48403068  0.26282771    -0.25400
H427        H  0.72119903  0.58053458  0.31290655     0.08500
H428        H  0.71481667  0.54923034  0.26797885     0.12100
H429        H  0.78398255  0.49083502  0.36082742     0.12000
H430        H  0.79833956  0.43874542  0.33542375     0.11800
H431        H  0.79716407  0.40860399  0.29015077     0.12300
H432        H  0.72884341  0.49682282  0.24244625     0.14200
C433        C  0.75398136  0.55274537  0.01267454    -0.05800
C434        C  0.77661118  0.56774118  0.03883428    -0.05700
C435        C  0.77685431  0.55027950  0.06466192    -0.23900
C436        C  0.75617060  0.51709804  0.06453590     0.18300
C437        C  0.73208208  0.50213188  0.03834056     0.15600
C438        C  0.73002443  0.52041178  0.01260708    -0.18900
C439        C  0.71288038  0.46856332  0.03821833    -0.20700
C440        C  0.71868960  0.44967122  0.06378648    -0.13300
C441        C  0.74332599  0.46418016  0.08987909     0.03400
C442        C  0.76111633  0.49819771  0.09006496    -0.25400
H443        H  0.79554468  0.59251939  0.03918566     0.08500
H444        H  0.79536392  0.56209961  0.08461064     0.12100
H445        H  0.71346169  0.50844041  0.99237920     0.12000
H446        H  0.69439497  0.45669695  0.01828768     0.11800
H447        H  0.70420197  0.42367704  0.06311232     0.12300
H448        H  0.77996864  0.50986771  0.11003214     0.14200
C449        C  0.90908955  0.51612880  0.46648829    -0.05800
C450        C  0.89837079  0.48286992  0.47514058    -0.05700
C451        C  0.93778181  0.46420379  0.49340488    -0.23900
C452        C  0.98805257  0.47880947  0.50365913     0.18300
C453        C  0.99876278  0.51228379  0.99509299     0.15600
C454        C  0.95975525  0.53037916  0.47632814    -0.18900
C455        C  0.04827897  0.52740070  0.00553715    -0.20700
C456        C  0.08793899  0.50904749  0.02345005    -0.13300
C457        C  0.07889802  0.47519500  0.03118046     0.03400
C458        C  0.02820202  0.46045198  0.52183345    -0.25400
H459        H  0.85929542  0.47156882  0.46822639     0.08500
H460        H  0.92874692  0.43859383  0.49979431     0.12100
H461        H  0.96839752  0.55621643  0.97027361     0.12000
H462        H  0.05677093  0.55319477  0.99934678     0.11800
H463        H  0.12657917  0.52096587  0.03027919     0.12300
H464        H  0.02081372  0.43428328  0.52750543     0.14200
C465        C  0.27085150  0.80075433  0.21073130    -0.05800
C466        C  0.25622812  0.77180172  0.19389287    -0.05700
C467        C  0.24956484  0.74024802  0.20686275    -0.23900
C468        C  0.25717840  0.73710357  0.23690947     0.18300
C469        C  0.27274602  0.76583620  0.25408082     0.15600
C470        C  0.27953176  0.79734313  0.24093284    -0.18900
C471        C  0.28051016  0.76269708  0.28412556    -0.20700
C472        C  0.27122485  0.73158506  0.29706860    -0.13300
C473        C  0.25409043  0.70303730  0.28020482     0.03400
C474        C  0.24830308  0.70592224  0.25004927    -0.25400
H475        H  0.24983833  0.77354874  0.17069575     0.08500
H476        H  0.23786669  0.71837194  0.19337359     0.12100
H477        H  0.29119777  0.81930706  0.25433786     0.12000
H478        H  0.29278757  0.78449395  0.29761287     0.11800
H479        H  0.27618251  0.73010446  0.32023521     0.12300
H480        H  0.23559672  0.68408878  0.23666331     0.14200
C481        C  0.24394614  0.53620511  0.40022828    -0.05800
C482        C  0.27080823  0.54994778  0.42620318    -0.05700
C483        C  0.27524597  0.53139437  0.45178670    -0.23900
C484        C  0.25267874  0.49881675  0.45188596     0.18300
C485        C  0.22504302  0.48478796  0.42599925     0.15600
C486        C  0.22105098  0.50349845  0.40032262    -0.18900
C487        C  0.20126543  0.45250873  0.42635133    -0.20700
C488        C  0.20351435  0.43478008  0.45228837    -0.16500
C489        C  0.23083893  0.44866340  0.47806058     0.03400
C490        C  0.25617694  0.48042989  0.47760423    -0.25400
H491        H  0.28884174  0.57500496  0.42674495     0.08500
H492        H  0.29621366  0.54257707  0.47151552     0.12100
H493        H  0.20017644  0.49255345  0.38045976     0.12000
H494        H  0.17981103  0.44139200  0.40671215     0.11800
H495        H  0.18322990  0.41049082  0.45231174     0.12300
H496        H  0.27626394  0.49168614  0.49752007     0.14200
C497        C  0.25213866  0.46520086  0.15148414    -0.05800
C498        C  0.28160287  0.45251854  0.17743687    -0.05700
C499        C  0.28710778  0.47174037  0.20245376    -0.23900
C500        C  0.26292565  0.50385617  0.20196133     0.18300
C501        C  0.23334285  0.51693485  0.17597581     0.15600
C502        C  0.22841636  0.49764766  0.15092162    -0.18900
C503        C  0.20808478  0.54871057  0.17563795    -0.20700
C504        C  0.21007344  0.56664801  0.20112556    -0.13300
C505        C  0.23846850  0.55347500  0.22715014     0.03400
C506        C  0.26614926  0.52251323  0.22724566    -0.25400
H507        H  0.30055753  0.42775807  0.17840044     0.08500
H508        H  0.30976860  0.46132058  0.22225316     0.12100
H509        H  0.20565004  0.50784315  0.13104642     0.12000
H510        H  0.18528725  0.55911206  0.15586742     0.11800
H511        H  0.18818552  0.59034404  0.20065250     0.12300
H512        H  0.28737456  0.51182551  0.24731325     0.14200
C513        C  0.40463674  0.58400479  0.34630146    -0.05800
C514        C  0.43004490  0.55243472  0.34499083    -0.05700
C515        C  0.48426224  0.54842641  0.35664416    -0.23900
C516        C  0.51391159  0.57584737  0.37005378     0.18300
C517        C  0.48879460  0.60771889  0.37141226     0.15600
C518        C  0.43448818  0.61165487  0.35936869    -0.18900
C519        C  0.51837291  0.63511023  0.38490380    -0.20700
C520        C  0.57269733  0.63123586  0.39632631    -0.13300
C521        C  0.59830755  0.59982615  0.39468553     0.03400
C522        C  0.56835723  0.57203726  0.38186306    -0.25400
H523        H  0.40780413  0.53068496  0.33519575     0.08500
H524        H  0.50286974  0.52382391  0.35537598     0.12100
H525        H  0.41516875  0.63598464  0.36088226     0.12000
H526        H  0.49967791  0.65966124  0.38628034     0.11800
H527        H  0.59489926  0.65301350  0.40609189     0.12300
H528        H  0.58771215  0.54773808  0.38026402     0.14200
C529        C  0.91475523  0.64169353  0.38499395    -0.05800
C530        C  0.90619632  0.64245388  0.35475861    -0.05700
C531        C  0.94888686  0.64587936  0.34021065    -0.23900
C532        C  0.00127580  0.64842744  0.35552808     0.18300
C533        C  0.01041830  0.64905877  0.38589609     0.15600
C534        C  0.96709337  0.64595624  0.40046312    -0.18900
C535        C  0.06298573  0.65120741  0.40116106    -0.20700
C536        C  0.10603088  0.65069773  0.38660386    -0.13300
C537        C  0.09746170  0.64844087  0.35645067     0.03400
C538        C  0.04473525  0.64857615  0.34099390    -0.25400
H539        H  0.86638999  0.63942861  0.34218114     0.08500
H540        H  0.94102228  0.64544111  0.31695269     0.12100
H541        H  0.97441103  0.64534356  0.42373002     0.12000
H542        H  0.07092411  0.65190455  0.42441017     0.11800
H543        H  0.14623935  0.65071634  0.39909175     0.12300
H544        H  0.03748768  0.64651396  0.31780288     0.14200
C545        C  0.08002727  0.52709258  0.27459015    -0.05800
C546        C  0.08901532  0.49301127  0.26804332    -0.05700
C547        C  0.05007568  0.47462936  0.24993109    -0.23900
C548        C  0.00122567  0.48989901  0.23816573     0.18300
C549        C  0.99098253  0.52391748  0.24493098     0.15600
C550        C  0.03053528  0.54237424  0.26315517    -0.18900
C551        C  0.94134799  0.53869598  0.23338083    -0.20700
C552        C  0.90146600  0.51934682  0.21639518    -0.13300
C553        C  0.91122913  0.48526274  0.21018998     0.03400
C554        C  0.96194119  0.47118326  0.22040133    -0.25400
H555        H  0.12689993  0.48074924  0.27630909     0.08500
H556        H  0.05829217  0.44848574  0.24502405     0.12100
H557        H  0.02337279  0.56878830  0.26772593     0.12000
H558        H  0.93281732  0.56480071  0.23821900     0.11800
H559        H  0.86254945  0.53066105  0.20889492     0.12300
H560        H  0.97000030  0.44483598  0.21600741     0.14200
O561        O  0.18556033  0.62976108  0.85691179    -0.85900
O562        O  0.26512243  0.58394085  0.87283534    -0.82900
C563        C  0.24168595  0.55531821  0.87297907     0.97600
O564        O  0.21876526  0.54219290  0.84977318    -0.83000
O565        O  0.17191218  0.53584671  0.79262735    -0.85600
C566        C  0.12505337  0.54768722  0.78951588     1.02100
O567        O  0.11791863  0.57807221  0.79597401    -0.78400
O568        O  0.13815727  0.64313870  0.81484087    -0.78600
C569        C  0.14286103  0.64062673  0.84191526     1.02000
O570        O  0.24708525  0.66633358  0.82043911    -0.85900
O571        O  0.32444397  0.61608478  0.83359367    -0.83000
C572        C  0.34622823  0.58715002  0.83663359     0.97600
O573        O  0.31774251  0.56052955  0.83365412    -0.83000
O574        O  0.26631053  0.56165047  0.77697284    -0.85600
C575        C  0.23251184  0.56862188  0.75468363     1.02100
O576        O  0.19024677  0.58502192  0.75632447    -0.78400
O577        O  0.21640698  0.64809552  0.77703548    -0.78600
C578        C  0.23917075  0.67075648  0.79339384     1.02000
Cr579      Cr  0.25313523  0.62231957  0.84363397     1.93700
Cr580      Cr  0.24211771  0.55340159  0.81349691     1.93200
Cr581      Cr  0.16984750  0.61263452  0.78824256     1.39100
O582        O  0.22166991  0.59625704  0.81508044    -1.23600
O583        O  0.82541777  0.62525548  0.88458075    -0.85900
O584        O  0.73719624  0.58650763  0.86780680    -0.82900
C585        C  0.75574005  0.55645618  0.86757139     0.97600
O586        O  0.77471577  0.54140441  0.89079898    -0.83000
O587        O  0.81774661  0.52980829  0.94825195    -0.85600
C588        C  0.86636659  0.53822362  0.95086566     1.02100
O589        O  0.87822243  0.56757195  0.94340949    -0.78400
O590        O  0.87474796  0.63422533  0.92684727    -0.78600
C591        C  0.86941576  0.63355638  0.89969586     1.02000
O592        O  0.77215084  0.66622203  0.92123097    -0.85900
O593        O  0.68508901  0.62331500  0.90787941    -0.83000
C594        C  0.65684042  0.59681983  0.90399643     0.97600
O595        O  0.67898484  0.56781037  0.90587151    -0.83000
O596        O  0.72852859  0.56338125  0.96299866    -0.85600
C597        C  0.76320608  0.56752115  0.98540774     1.02100
O598        O  0.80873691  0.58024230  0.98410713    -0.78400
O599        O  0.79899725  0.64560657  0.96459352    -0.78600
C600        C  0.78194651  0.67010858  0.94827706     1.02000
Cr601      Cr  0.75669070  0.62336700  0.89758697     1.93700
Cr602      Cr  0.75213413  0.55377230  0.92672823     1.93200
Cr603      Cr  0.83608043  0.60617996  0.95272721     1.39100
O604        O  0.78144165  0.59473218  0.92586885    -1.23600
O605        O  0.77418101  0.33481136  0.67263821    -0.85900
O606        O  0.68537258  0.37629074  0.65911028    -0.82900
C607        C  0.65654234  0.40254096  0.65539347     0.97600
O608        O  0.67783137  0.43189081  0.65778945    -0.83000
O609        O  0.73155231  0.43794014  0.71428157    -0.85600
C610        C  0.76799455  0.43460918  0.73608717     1.02100
O611        O  0.81274695  0.42165105  0.73403460    -0.78400
O612        O  0.79798786  0.35602468  0.71571377    -0.78600
C613        C  0.78303322  0.33110797  0.69978936     1.02000
O614        O  0.82493544  0.37665618  0.63475841    -0.85900
O615        O  0.73377458  0.41405859  0.61790674    -0.83000
C616        C  0.75016399  0.44461108  0.61714166     0.97600
O617        O  0.77085358  0.45931256  0.63995294    -0.83000
O618        O  0.81905946  0.47095034  0.69581144    -0.85600
C619        C  0.86745823  0.46234937  0.69738392     1.02100
O620        O  0.87871519  0.43241523  0.69153497    -0.78400
O621        O  0.87232732  0.36531948  0.67719126    -0.78600
C622        C  0.86802725  0.36691682  0.65014799     1.02000
Cr623      Cr  0.75636266  0.37743408  0.64822723     1.93700
Cr624      Cr  0.75176528  0.44687360  0.67679353     1.93200
Cr625      Cr  0.83627019  0.39459821  0.70266806     1.39100
O626        O  0.78109260  0.40612220  0.67607247    -1.23600
O627        O  0.24433380  0.33450064  0.57289261    -0.85900
O628        O  0.32393770  0.38297497  0.58473435    -0.82900
C629        C  0.34685827  0.41154921  0.58631213     0.97600
O630        O  0.31949241  0.43866388  0.58307657    -0.83000
O631        O  0.26318459  0.43873285  0.52737971    -0.85600
C632        C  0.22707200  0.43295794  0.00592656     1.02100
O633        O  0.18469994  0.41735076  0.00889677    -0.78400
O634        O  0.21293569  0.35422701  0.52968725    -0.78600
C635        C  0.23588443  0.33107764  0.54577295     1.02000
O636        O  0.18642255  0.37186557  0.61044111    -0.85900
O637        O  0.26902288  0.41626341  0.62480277    -0.83000
C638        C  0.24739014  0.44542954  0.62474705     0.97600
O639        O  0.22361124  0.45864380  0.60161523    -0.83000
O640        O  0.17163711  0.46542338  0.54577382    -0.85600
C641        C  0.12471581  0.45401861  0.54453518     1.02100
O642        O  0.11767718  0.42349917  0.55119225    -0.78400
O643        O  0.13870318  0.35758577  0.56901780    -0.78600
C644        C  0.14361716  0.36063182  0.59596505     1.02000
Cr645      Cr  0.25339916  0.37811454  0.59600735     1.93700
Cr646      Cr  0.24299729  0.44712058  0.56476662     1.93200
Cr647      Cr  0.16768775  0.38906535  0.54176567     1.39100
O648        O  0.22150499  0.40466277  0.56749355    -1.23600
O649        O  0.74773491  0.83341019  0.57134140    -0.85900
O650        O  0.82355463  0.88445233  0.58519557    -0.82900
C651        C  0.84405495  0.91381232  0.58817104     0.97600
O652        O  0.81433600  0.93985818  0.58615683    -0.83000
O653        O  0.76333516  0.93942486  0.53040932    -0.85600
C654        C  0.73020835  0.93385987  0.00780942     1.02100
O655        O  0.68691387  0.91795434  0.00886718    -0.78400
O656        O  0.71695479  0.85366329  0.52820550    -0.78600
C657        C  0.74041322  0.83051336  0.54420071     1.02000
O658        O  0.68521916  0.86664863  0.60879488    -0.85900
O659        O  0.76416323  0.91323277  0.62513232    -0.83000
C660        C  0.74069416  0.94169794  0.62569817     0.97600
O661        O  0.71481613  0.95473414  0.60291502    -0.83000
O662        O  0.66590259  0.96287466  0.54566762    -0.85600
C663        C  0.62009973  0.94955225  0.54421154     1.02100
O664        O  0.61616850  0.91880984  0.55074224    -0.78400
O665        O  0.63950758  0.85352066  0.56648801    -0.78600
C666        C  0.64299911  0.85564023  0.59349454     1.02000
Cr667      Cr  0.75267895  0.87604500  0.59548601     1.93700
Cr668      Cr  0.73805458  0.94608605  0.56643445     1.93200
Cr669      Cr  0.66876875  0.88691724  0.54052870     1.39100
O670        O  0.71999143  0.90280739  0.56749102    -1.23600
O671        O  0.27042221  0.83869610  0.67029672    -0.85900
O672        O  0.18481419  0.88265254  0.65642601    -0.82900
C673        C  0.15678378  0.90924569  0.65277066     0.97600
O674        O  0.17917513  0.93828019  0.65502925    -0.83000
O675        O  0.23022569  0.94199081  0.71230756    -0.85600
C676        C  0.26523104  0.93755089  0.73461533     1.02100
O677        O  0.30985419  0.92383181  0.73314488    -0.78400
O678        O  0.29472469  0.85883083  0.71366559    -0.78600
C679        C  0.27842772  0.83445654  0.69740674     1.02000
O680        O  0.32553729  0.88004402  0.63380916    -0.85900
O681        O  0.23790215  0.91988539  0.61648160    -0.83000
C682        C  0.25682567  0.94992343  0.61630310     0.97600
O683        O  0.27586513  0.96429894  0.63956303    -0.83000
O684        O  0.32097630  0.97391100  0.69647723    -0.85600
C685        C  0.36923248  0.96460490  0.69876836     1.02100
O686        O  0.37967506  0.93475910  0.69230755    -0.78400
O687        O  0.37234494  0.86812102  0.67625869    -0.78600
C688        C  0.36827004  0.86969861  0.64915663     1.02000
Cr689      Cr  0.25639001  0.88225505  0.64641760     1.93700
Cr690      Cr  0.25348174  0.95139888  0.67562446     1.93200
Cr691      Cr  0.33505775  0.89721246  0.70182566     1.39100
O692        O  0.28139452  0.91010847  0.67477123    -1.23600
O693        O  0.33249469  0.13320424  0.88183491    -0.85900
O694        O  0.24543771  0.09234870  0.86582116    -0.82900
C695        C  0.26356598  0.06220147  0.86539151     0.97600
O696        O  0.28595550  0.04789101  0.88835109    -0.83000
O697        O  0.33693018  0.03841253  0.94478526    -0.85600
C698        C  0.38434146  0.04883014  0.94530040     1.02100
O699        O  0.39260017  0.07914087  0.93880115    -0.78400
O700        O  0.37972856  0.14587813  0.92376051    -0.78600
C701        C  0.37544325  0.14360574  0.89676442     1.02000
O702        O  0.27767249  0.17233752  0.91963467    -0.85900
O703        O  0.19373427  0.12738245  0.90655274    -0.83000
C704        C  0.16704861  0.10020664  0.90339606     0.97600
O705        O  0.19093120  0.07165631  0.90624669    -0.83000
O706        O  0.24609003  0.06804458  0.96254258    -0.85600
C707        C  0.28212380  0.07213406  0.98434218     1.02100
O708        O  0.32623287  0.08612239  0.98199915    -0.78400
O709        O  0.30491776  0.15096392  0.96273398    -0.78600
C710        C  0.28572255  0.17532789  0.94681800     1.02000
Cr711      Cr  0.26445396  0.12947429  0.89555575     1.93700
Cr712      Cr  0.26675529  0.05964165  0.92528491     1.93200
Cr713      Cr  0.34679186  0.11468442  0.94989616     1.39100
O714        O  0.29233347  0.10140934  0.92365505    -1.23600
O715        O  0.69172931  0.12654313  0.85760747    -0.85900
O716        O  0.76809423  0.07876826  0.87421226    -0.82900
C717        C  0.74082569  0.05138463  0.87227885     0.97600
O718        O  0.72257230  0.03859790  0.84827867    -0.83000
O719        O  0.68087843  0.03355675  0.79116861    -0.85600
C720        C  0.63399083  0.04528429  0.78869132     1.02100
O721        O  0.62715737  0.07534326  0.79615623    -0.78400
O722        O  0.64696245  0.14066421  0.81512820    -0.78600
C723        C  0.65050213  0.13868121  0.84211823     1.02000
O724        O  0.75732048  0.16260554  0.82285924    -0.85900
O725        O  0.83250205  0.11187813  0.83688422    -0.83000
C726        C  0.85428542  0.08301903  0.83985323     0.97600
O727        O  0.82554539  0.05647842  0.83599537    -0.83000
O728        O  0.77747644  0.05969486  0.77808433    -0.85600
C729        C  0.74378539  0.06684792  0.75574051     1.02100
O730        O  0.70123574  0.08291124  0.75741254    -0.78400
O731        O  0.72702949  0.14518552  0.77906423    -0.78600
C732        C  0.75002492  0.16737159  0.79583148     1.02000
Cr733      Cr  0.76032725  0.11824460  0.84559725     1.93700
Cr734      Cr  0.75048685  0.05035350  0.81374590     1.93200
Cr735      Cr  0.67952833  0.11000496  0.78912025     1.39100
O736        O  0.73026301  0.09312567  0.81609654    -1.23600
C737        C  0.60538472  0.14906706  0.85593276    -0.05800
C738        C  0.61324898  0.15258652  0.88595837    -0.05700
C739        C  0.56975062  0.15612928  0.89990479    -0.23900
C740        C  0.51743681  0.15570228  0.88413941     0.18300
C741        C  0.50920945  0.15396197  0.85383222     0.15600
C742        C  0.55320389  0.15115896  0.83989711    -0.18900
C743        C  0.45699688  0.15302764  0.83804963    -0.20700
C744        C  0.41346950  0.15168904  0.85215355    -0.13300
C745        C  0.42111929  0.15158946  0.88234739     0.03400
C746        C  0.47332184  0.15494733  0.89821279    -0.25400
H747        H  0.65307820  0.15130260  0.89883753     0.08500
H748        H  0.57696894  0.15766322  0.92311494     0.12100
H749        H  0.54652932  0.14827869  0.81678145     0.12000
H750        H  0.44985593  0.15186094  0.81482035     0.11800
H751        H  0.37373783  0.14936901  0.83933474     0.12300
H752        H  0.47988868  0.15478457  0.92147279     0.14200
C753        C  0.10822234  0.10214316  0.89369447    -0.05800
C754        C  0.08300701  0.13413495  0.88923127    -0.05700
C755        C  0.02874302  0.13668417  0.87724940    -0.23900
C756        C  0.99840257  0.10729642  0.86948951     0.18300
C757        C  0.02290598  0.07494772  0.87416420     0.15600
C758        C  0.07761196  0.07254678  0.88628304    -0.18900
C759        C  0.99228540  0.04559312  0.86643842    -0.20700
C760        C  0.93781754  0.04823938  0.85457299    -0.13300
C761        C  0.91292655  0.08029413  0.85005138     0.03400
C762        C  0.94385895  0.10977496  0.85734083    -0.25400
H763        H  0.10549758  0.15739678  0.89450382     0.08500
H764        H  0.01060450  0.16169384  0.87385649     0.12100
H765        H  0.09649923  0.04772808  0.88935028     0.12000
H766        H  0.01033222  0.02056085  0.86981212     0.11800
H767        H  0.91498575  0.02510653  0.84931717     0.12300
H768        H  0.92530718  0.13469120  0.85414241     0.14200
C769        C  0.41354110  0.98659157  0.71265569    -0.05800
C770        C  0.40369506  0.01891835  0.72306106    -0.05700
C771        C  0.44475965  0.03691893  0.74044421    -0.23900
C772        C  0.49600620  0.02260845  0.74801776     0.18300
C773        C  0.50631135  0.99041184  0.73716633     0.15600
C774        C  0.46546102  0.97297815  0.71926521    -0.18900
C775        C  0.55704634  0.97569989  0.74485825    -0.20700
C776        C  0.59767945  0.99292458  0.76288786    -0.13300
C777        C  0.58844384  0.02526701  0.77347458     0.03400
C778        C  0.53716730  0.03986008  0.76616704    -0.25400
H779        H  0.36391825  0.02980495  0.71852229     0.08500
H780        H  0.43612674  0.06161879  0.74851550     0.12100
H781        H  0.47370166  0.94797664  0.71158293     0.12000
H782        H  0.56543430  0.95095447  0.73676756     0.11800
H783        H  0.63686908  0.98124810  0.76789048     0.12300
H784        H  0.52963848  0.06492905  0.77394891     0.14200
C785        C  0.25781665  0.95305802  0.76181435    -0.05800
C786        C  0.27863935  0.93733829  0.78819592    -0.05700
C787        C  0.28081675  0.95499389  0.81387813    -0.23900
C788        C  0.26397719  0.98906862  0.81344307     0.18300
C789        C  0.24180645  0.00484279  0.78702959     0.15600
C790        C  0.23778083  0.98646971  0.76144176    -0.18900
C791        C  0.22628112  0.03916686  0.78654188    -0.20700
C792        C  0.23353576  0.05791174  0.81193587    -0.13300
C793        C  0.25616923  0.04263630  0.83830182     0.03400
C794        C  0.27063909  0.00794622  0.83885288    -0.25400
H795        H  0.29463526  0.91173616  0.78883587     0.08500
H796        H  0.29778723  0.94248883  0.83396556     0.12100
H797        H  0.22268439  0.99899825  0.74107313     0.12000
H798        H  0.20934562  0.05168064  0.76645283     0.11800
H799        H  0.22166853  0.08443400  0.81090484     0.12300
H800        H  0.28778576  0.99565035  0.85902083     0.14200
C801        C  0.25497390  0.96913777  0.58902245    -0.05800
C802        C  0.23219989  0.95466045  0.56258940    -0.05700
C803        C  0.23020278  0.97302214  0.53698501    -0.23900
C804        C  0.25133523  0.00609408  0.53731826     0.18300
C805        C  0.27443916  0.02096615  0.56371848     0.15600
C806        C  0.27571376  0.00253460  0.58936317    -0.18900
C807        C  0.29698338  0.05369916  0.56393597    -0.20700
C808        C  0.29830442  0.07102804  0.53812300    -0.13300
C809        C  0.27553967  0.05634514  0.51182330     0.03400
C810        C  0.25114861  0.02414125  0.51162354    -0.25400
H811        H  0.21587438  0.92911280  0.56168586     0.08500
H812        H  0.21261172  0.96120249  0.51687298     0.12100
H813        H  0.29349196  0.01411753  0.60955956     0.12000
H814        H  0.31493159  0.06547026  0.58400766     0.11800
H815        H  0.31758921  0.09570107  0.53864373     0.12300
H816        H  0.23447437  0.01235470  0.49132767     0.14200
C817        C  0.57155280  0.96783415  0.53059407    -0.05800
C818        C  0.52217082  0.96070213  0.53859693    -0.05700
C819        C  0.47481983  0.97390250  0.52257528    -0.23900
C820        C  0.47610493  0.99362169  0.49787181     0.18300
C821        C  0.52574000  0.00069863  0.98964258     0.15600
C822        C  0.57311778  0.98820270  0.00629414    -0.18900
C823        C  0.52719871  0.02010525  0.96484905    -0.20700
C824        C  0.48017343  0.03380640  0.94908090    -0.13300
C825        C  0.43086789  0.02784541  0.95757240     0.03400
C826        C  0.42884153  0.00696893  0.98157728    -0.25400
H827        H  0.52023130  0.94444824  0.55698170     0.08500
H828        H  0.43717489  0.96822079  0.52921231     0.12100
H829        H  0.61101879  0.99303130  0.99961227     0.12000
H830        H  0.56486662  0.02552484  0.95813755     0.11800
H831        H  0.48251072  0.05018018  0.93081861     0.12300
H832        H  0.39104502  0.00290384  0.48859390     0.14200
C833        C  0.73073032  0.03290019  0.89773623    -0.05800
C834        C  0.67772243  0.02548963  0.90013167    -0.05700
C835        C  0.66672439  0.00318381  0.92141133    -0.23900
C836        C  0.70868538  0.98734505  0.94022647     0.18300
C837        C  0.76227751  0.99474268  0.93790669     0.15600
C838        C  0.77298739  0.01779866  0.91683363    -0.18900
C839        C  0.80420558  0.97876358  0.95658267    -0.20700
C840        C  0.79330508  0.95684334  0.97812435    -0.13300
C841        C  0.74030574  0.95013781  0.98118201     0.03400
C842        C  0.69802439  0.96474595  0.96163629    -0.25400
H843        H  0.64477580  0.03652096  0.88507262     0.08500
H844        H  0.62546167  0.99788284  0.92283244     0.12100
H845        H  0.81388879  0.02284338  0.91445363     0.12000
H846        H  0.84545008  0.98390226  0.95502106     0.11800
H847        H  0.82648609  0.94603187  0.99315147     0.12300
H848        H  0.65707885  0.96015143  0.96413921     0.14200
C849        C  0.74881674  0.05173817  0.72809482    -0.05800
C850        C  0.71917870  0.06515533  0.70247002    -0.05700
C851        C  0.71302818  0.04660893  0.67712346    -0.23900
C852        C  0.73553617  0.01406530  0.67718266     0.18300
C853        C  0.76702626  0.00085719  0.70261436     0.15600
C854        C  0.77432714  0.02007523  0.72778833    -0.18900
C855        C  0.78878038  0.96807297  0.70273472    -0.20700
C856        C  0.77912693  0.94843521  0.67790297    -0.13300
C857        C  0.74766437  0.96130120  0.65254206     0.03400
C858        C  0.72612346  0.99426472  0.65237391    -0.25400
H859        H  0.69886154  0.08939324  0.70233307     0.08500
H860        H  0.68895032  0.05714372  0.65776530     0.12100
H861        H  0.79643960  0.00923383  0.74757851     0.12000
H862        H  0.81292403  0.95753343  0.72206968     0.11800
H863        H  0.79670957  0.92328313  0.67849837     0.12300
H864        H  0.70214143  0.00464914  0.63290942     0.14200
C865        C  0.59657996  0.84765365  0.60744272    -0.05800
C866        C  0.60402880  0.84369627  0.63749379    -0.05700
C867        C  0.56039435  0.84387803  0.65169050    -0.23900
C868        C  0.50836446  0.84859812  0.63618637     0.18300
C869        C  0.50017791  0.85073875  0.60586399     0.15600
C870        C  0.54413853  0.84973331  0.59167420    -0.18900
C871        C  0.44843408  0.85584561  0.59028729    -0.20700
C872        C  0.40567575  0.86055021  0.60454733    -0.13300
C873        C  0.41339385  0.86007860  0.63477294     0.03400
C874        C  0.46486338  0.85298170  0.65048111    -0.25400
H875        H  0.64395438  0.84196479  0.65021082     0.08500
H876        H  0.56762840  0.84192440  0.67490512     0.12100
H877        H  0.53772912  0.85316732  0.56856601     0.12000
H878        H  0.44126422  0.85741882  0.56705211     0.11800
H879        H  0.36657152  0.86561224  0.59175058     0.12300
H880        H  0.47157079  0.85248001  0.67373927     0.14200
C881        C  0.90261991  0.91800156  0.59658829    -0.05800
C882        C  0.92671644  0.94982404  0.59368229    -0.05700
C883        C  0.98122353  0.95479044  0.60433744    -0.23900
C884        C  0.01244314  0.92814230  0.61846952     0.18300
C885        C  0.98854596  0.89601142  0.62126045     0.15600
C886        C  0.93409867  0.89105892  0.61006442    -0.18900
C887        C  0.01932896  0.86937440  0.63551489    -0.20700
C888        C  0.07351884  0.87424368  0.64651813    -0.13300
C889        C  0.09811932  0.90588261  0.64362804     0.03400
C890        C  0.06708932  0.93294642  0.62977506    -0.25400
H891        H  0.90321101  0.97102406  0.58344097     0.08500
H892        H  0.99875127  0.97957821  0.60188928     0.12100
H893        H  0.91585045  0.86653809  0.61275604     0.12000
H894        H  0.00159678  0.84464780  0.63796919     0.11800
H895        H  0.09645099  0.85297178  0.65703947     0.12300
H896        H  0.08566297  0.95736509  0.62713347     0.14200
C897        C  0.27432759  0.20747983  0.96068829    -0.05800
C898        C  0.25046392  0.23530843  0.94443921    -0.05700
C899        C  0.23922470  0.26519443  0.95801991    -0.23900
C900        C  0.25163887  0.26769604  0.98806435     0.18300
C901        C  0.27611266  0.24006771  0.50462761     0.15600
C902        C  0.28733184  0.21023578  0.99086398    -0.18900
C903        C  0.28850616  0.24263496  0.53468873    -0.20700
C904        C  0.27597060  0.27224508  0.54829021    -0.13300
C905        C  0.25099371  0.29974006  0.53201969     0.03400
C906        C  0.23946677  0.29726884  0.00181112    -0.25400
H907        H  0.24016295  0.23389526  0.92126837     0.08500
H908        H  0.22048131  0.28627103  0.94504036     0.12100
H909        H  0.30597030  0.18906711  0.50378076     0.12000
H910        H  0.30747581  0.22163716  0.54768244     0.11800
H911        H  0.28546475  0.27353487  0.57148708     0.12300
H912        H  0.22041394  0.31827740  0.98883899     0.14200
C913        C  0.77792153  0.29737691  0.71331798    -0.05800
C914        C  0.76127638  0.26871284  0.69650880    -0.05700
C915        C  0.75560304  0.23714409  0.70949699    -0.23900
C916        C  0.76625164  0.23376172  0.73952702     0.18300
C917        C  0.78427251  0.26212691  0.75667266     0.15600
C918        C  0.79023233  0.29368126  0.74347220    -0.18900
C919        C  0.79479873  0.25860564  0.78673597    -0.20700
C920        C  0.78537762  0.22753778  0.79973704    -0.13300
C921        C  0.76569208  0.19949102  0.78285772     0.03400
C922        C  0.75764061  0.20268888  0.75267336    -0.25400
H923        H  0.75213307  0.27074909  0.67331550     0.08500
H924        H  0.74199641  0.21550684  0.69607132     0.12100
H925        H  0.80367148  0.31546201  0.75677085     0.12000
H926        H  0.80902016  0.28010284  0.80019185     0.11800
H927        H  0.79218210  0.22571932  0.82293893     0.12300
H928        H  0.74298240  0.18123883  0.73923189     0.14200
C929        C  0.59832837  0.39895664  0.64525534    -0.05800
C930        C  0.57260567  0.36767868  0.64795820    -0.05700
C931        C  0.51854938  0.36341472  0.63597756    -0.23900
C932        C  0.48946385  0.39025579  0.62081875     0.18300
C933        C  0.51508330  0.42174464  0.61788479     0.15600
C934        C  0.56912768  0.42595108  0.63025528    -0.18900
C935        C  0.48620740  0.44856979  0.60266141    -0.20700
C936        C  0.43190435  0.44468226  0.59131668    -0.13300
C937        C  0.40563021  0.41379068  0.59469686     0.03400
C938        C  0.43501546  0.38636867  0.60897896    -0.25400
H939        H  0.59444553  0.34640658  0.65917398     0.08500
H940        H  0.49959106  0.33909586  0.63844149     0.12100
H941        H  0.58877623  0.44999083  0.62756039     0.12000
H942        H  0.50534250  0.47278761  0.60003181     0.11800
H943        H  0.41012730  0.46615197  0.58039251     0.12300
H944        H  0.41509410  0.36250662  0.61193752     0.14200
C945        C  0.09828804  0.35299702  0.61064126    -0.05800
C946        C  0.10584147  0.35371665  0.64081424    -0.05700
C947        C  0.06211935  0.35325904  0.65481694    -0.23900
C948        C  0.00995685  0.35253784  0.63890067     0.18300
C949        C  0.00193578  0.35011565  0.60865004     0.15600
C950        C  0.04613666  0.34981680  0.59474692    -0.18900
C951        C  0.94978862  0.35003308  0.59268733    -0.20700
C952        C  0.90614941  0.35418975  0.60638523    -0.13300
C953        C  0.91374834  0.35798759  0.63635173     0.03400
C954        C  0.96580939  0.35599923  0.65259265    -0.25400
H955        H  0.14558523  0.35605259  0.65361747     0.08500
H956        H  0.06907866  0.35496712  0.67801654     0.12100
H957        H  0.03968393  0.34946315  0.57149200     0.12000
H958        H  0.94282955  0.34806709  0.56950499     0.11800
H959        H  0.86642067  0.35533408  0.59338354     0.12300
H960        H  0.97223873  0.35900275  0.67569168     0.14200
C961        C  0.77447273  0.70352248  0.96138235    -0.05800
C962        C  0.75047098  0.73095931  0.94462033    -0.05700
C963        C  0.74137886  0.76180688  0.95746166    -0.23900
C964        C  0.75600918  0.76571797  0.98730652     0.18300
C965        C  0.78149348  0.73868138  0.00430397     0.15600
C966        C  0.79076754  0.70788907  0.99125186    -0.18900
C967        C  0.79609132  0.74261757  0.53415604    -0.20700
C968        C  0.78377281  0.77267504  0.54719863    -0.13300
C969        C  0.75703546  0.79940501  0.53059278     0.03400
C970        C  0.74434500  0.79590342  0.50049519    -0.25400
H971        H  0.73789386  0.72839911  0.92163398     0.08500
H972        H  0.72201119  0.78240319  0.94410708     0.12100
H973        H  0.80985330  0.68711477  0.00451121     0.12000
H974        H  0.81602230  0.72217541  0.54748395     0.11800
H975        H  0.79441991  0.77477828  0.57031508     0.12300
H976        H  0.72403424  0.81633146  0.98728323     0.14200
C977        C  0.75292859  0.53800070  0.84024690    -0.05800
C978        C  0.73356775  0.55411029  0.81378141    -0.05700
C979        C  0.72978203  0.53622466  0.78811913    -0.23900
C980        C  0.74546083  0.50195747  0.78849380     0.18300
C981        C  0.76546643  0.48558749  0.81495920     0.15600
C982        C  0.76883283  0.50362930  0.84059792    -0.18900
C983        C  0.78269580  0.45161253  0.81530771    -0.20700
C984        C  0.78166474  0.43433007  0.78957015    -0.13300
C985        C  0.76173641  0.45039184  0.76323989     0.03400
C986        C  0.74283446  0.48403060  0.76282779    -0.25400
H987        H  0.72119757  0.58053444  0.81290660     0.08500
H988        H  0.71481485  0.54923007  0.76797893     0.12100
H989        H  0.78398348  0.49083537  0.86082742     0.12000
H990        H  0.79834081  0.43874584  0.83542377     0.11800
H991        H  0.79716501  0.40860433  0.79015082     0.12300
H992        H  0.72884203  0.49682261  0.74244633     0.14200
C993        C  0.75398130  0.55274535  0.51267451    -0.05800
C994        C  0.77661110  0.56774116  0.53883425    -0.05700
C995        C  0.77685407  0.55027953  0.56466190    -0.23900
C996        C  0.75617024  0.51709811  0.56453590     0.18300
C997        C  0.73208170  0.50213195  0.53834055     0.15600
C998        C  0.73002419  0.52041181  0.51260706    -0.18900
C999        C  0.71287986  0.46856341  0.53821834    -0.20700
C1000       C  0.71868906  0.44967132  0.56378649    -0.13300
C1001       C  0.74332551  0.46418024  0.58987910     0.03400
C1002       C  0.76111590  0.49819778  0.59006497    -0.25400
H1003       H  0.79554470  0.59251935  0.53918563     0.08500
H1004       H  0.79536368  0.56209965  0.58461062     0.12100
H1005       H  0.71346144  0.50844043  0.49237919     0.12000
H1006       H  0.69439442  0.45669706  0.51828769     0.11800
H1007       H  0.70420137  0.42367716  0.56311235     0.12300
H1008       H  0.77996825  0.50986777  0.61003214     0.14200
C1009       C  0.90908947  0.51612887  0.96648846    -0.05800
C1010       C  0.89837055  0.48287017  0.97514112    -0.05700
C1011       C  0.93778159  0.46420414  0.99340549    -0.23900
C1012       C  0.98805254  0.47880972  0.00365946     0.18300
C1013       C  0.99876266  0.51228374  0.49509302     0.15600
C1014       C  0.95975535  0.53037912  0.97632803    -0.18900
C1015       C  0.04827868  0.52740073  0.50553746    -0.20700
C1016       C  0.08793866  0.50904741  0.52345029    -0.13300
C1017       C  0.07889784  0.47519478  0.53118036     0.03400
C1018       C  0.02820203  0.46045231  0.02183383    -0.25400
H1019       H  0.85929506  0.47156915  0.96822717     0.08500
H1020       H  0.92874656  0.43859432  0.99979521     0.12100
H1021       H  0.96839727  0.55621660  0.47027400     0.12000
H1022       H  0.05677051  0.55319491  0.49934737     0.11800
H1023       H  0.12657874  0.52096584  0.53027966     0.12300
H1024       H  0.02081360  0.43428372  0.02750609     0.14200
C1025       C  0.27085199  0.80075420  0.71073131    -0.05800
C1026       C  0.25622892  0.77180156  0.69389289    -0.05700
C1027       C  0.24956576  0.74024785  0.70686277    -0.23900
C1028       C  0.25717910  0.73710343  0.73690948     0.18300
C1029       C  0.27274651  0.76583608  0.75408083     0.15600
C1030       C  0.27953218  0.79734302  0.74093285    -0.18900
C1031       C  0.28051044  0.76269700  0.78412557    -0.20700
C1032       C  0.27122501  0.73158500  0.79706860    -0.13300
C1033       C  0.25409069  0.70303723  0.78020482     0.03400
C1034       C  0.24830369  0.70592212  0.75004929    -0.25400
H1035       H  0.24983924  0.77354856  0.67069576     0.08500
H1036       H  0.23786780  0.71837174  0.69337362     0.12100
H1037       H  0.29119799  0.81930699  0.75433786     0.12000
H1038       H  0.29278772  0.78449390  0.79761288     0.11800
H1039       H  0.27618245  0.73010444  0.82023521     0.12300
H1040       H  0.23559745  0.68408864  0.73666332     0.14200
C1041       C  0.24394617  0.53620517  0.90022824    -0.05800
C1042       C  0.27080826  0.54994790  0.92620312    -0.05700
C1043       C  0.27524601  0.53139453  0.95178665    -0.23900
C1044       C  0.25267881  0.49881692  0.95188597     0.18300
C1045       C  0.22504311  0.48478806  0.92599929     0.15600
C1046       C  0.22105106  0.50349850  0.90032263    -0.18900
C1047       C  0.20126555  0.45250884  0.92635141    -0.20700
C1048       C  0.20351447  0.43478023  0.95228847    -0.16500
C1049       C  0.23083902  0.44866362  0.97806066     0.03400
C1050       C  0.25617701  0.48043011  0.97760426    -0.25400
H1051       H  0.28884173  0.57500508  0.92674486     0.08500
H1052       H  0.29621369  0.54257728  0.97151546     0.12100
H1053       H  0.20017653  0.49255346  0.88045978     0.12000
H1054       H  0.17981117  0.44139206  0.90671225     0.11800
H1055       H  0.18323005  0.41049097  0.95231188     0.12300
H1056       H  0.27626399  0.49168641  0.99752009     0.14200
C1057       C  0.25213800  0.46520071  0.65148401    -0.05800
C1058       C  0.28160238  0.45251848  0.67743673    -0.05700
C1059       C  0.28710725  0.47174033  0.70245361    -0.23900
C1060       C  0.26292490  0.50385606  0.70196119     0.18300
C1061       C  0.23334185  0.51693463  0.67597569     0.15600
C1062       C  0.22841540  0.49764742  0.65092151    -0.18900
C1063       C  0.20808356  0.54871028  0.67563785    -0.20700
C1064       C  0.21007234  0.56664777  0.70112544    -0.13300
C1065       C  0.23846770  0.55347489  0.72715000     0.03400
C1066       C  0.26614859  0.52251316  0.72724550    -0.25400
H1067       H  0.30055726  0.42775808  0.67840029     0.08500
H1068       H  0.30976826  0.46132062  0.72225300     0.12100
H1069       H  0.20564890  0.50784283  0.63104632     0.12000
H1070       H  0.18528583  0.55911169  0.65586734     0.11800
H1071       H  0.18818430  0.59034376  0.70065239     0.12300
H1072       H  0.28737411  0.51182553  0.74731307     0.14200
C1073       C  0.40463659  0.58400482  0.84630134    -0.05800
C1074       C  0.43004475  0.55243474  0.84499074    -0.05700
C1075       C  0.48426211  0.54842646  0.85664408    -0.23900
C1076       C  0.51391146  0.57584743  0.87005368     0.18300
C1077       C  0.48879447  0.60771894  0.87141213     0.15600
C1078       C  0.43448804  0.61165492  0.85936854    -0.18900
C1079       C  0.51837278  0.63511030  0.88490364    -0.20700
C1080       C  0.57269720  0.63123595  0.89632619    -0.13300
C1081       C  0.59830743  0.59982623  0.89468546     0.03400
C1082       C  0.56835711  0.57203732  0.88186299    -0.25400
H1083       H  0.40780400  0.53068497  0.83519568     0.08500
H1084       H  0.50286962  0.52382395  0.85537592     0.12100
H1085       H  0.41516861  0.63598470  0.86088210     0.12000
H1086       H  0.49967777  0.65966132  0.88628015     0.11800
H1087       H  0.59489911  0.65301360  0.90609176     0.12300
H1088       H  0.58771204  0.54773814  0.88026397     0.14200
C1089       C  0.91475518  0.64169374  0.88499402    -0.05800
C1090       C  0.90619625  0.64245394  0.85475868    -0.05700
C1091       C  0.94888676  0.64587939  0.84021070    -0.23900
C1092       C  0.00127570  0.64842760  0.85552811     0.18300
C1093       C  0.01041822  0.64905914  0.88589611     0.15600
C1094       C  0.96709332  0.64595663  0.90046316    -0.18900
C1095       C  0.06298567  0.65120791  0.90116105    -0.20700
C1096       C  0.10603080  0.65069815  0.88660384    -0.13300
C1097       C  0.09746160  0.64844107  0.85645065     0.03400
C1098       C  0.04473513  0.64857624  0.84099391    -0.25400
H1099       H  0.86638994  0.63942854  0.84218123     0.08500
H1100       H  0.94102217  0.64544099  0.81695275     0.12100
H1101       H  0.97441100  0.64534409  0.92373007     0.12000
H1102       H  0.07092407  0.65190522  0.92441015     0.11800
H1103       H  0.14623929  0.65071686  0.89909170     0.12300
H1104       H  0.03748753  0.64651389  0.81780290     0.14200
C1105       C  0.08002688  0.52709269  0.77459020    -0.05800
C1106       C  0.08901498  0.49301142  0.76804327    -0.05700
C1107       C  0.05007535  0.47462952  0.74993103    -0.23900
C1108       C  0.00122528  0.48989914  0.73816575     0.18300
C1109       C  0.99098205  0.52391757  0.74493112     0.15600
C1110       C  0.03053481  0.54237432  0.76315532    -0.18900
C1111       C  0.94134744  0.53869603  0.73338106    -0.20700
C1112       C  0.90146549  0.51934687  0.71639537    -0.13300
C1113       C  0.91122872  0.48526285  0.71019005     0.03400
C1114       C  0.96194083  0.47118341  0.72040131    -0.25400
H1115       H  0.12689965  0.48074941  0.77630897     0.08500
H1116       H  0.05829191  0.44848594  0.74502390     0.12100
H1117       H  0.02337227  0.56878834  0.76772616     0.12000
H1118       H  0.93281670  0.56480071  0.73821932     0.11800
H1119       H  0.86254889  0.53066107  0.70889518     0.12300
H1120       H  0.97000002  0.44483617  0.71600730     0.14200
loop_ 
_geom_bond_atom_site_label_1 
_geom_bond_atom_site_label_2 
_geom_bond_distance 
_geom_bond_site_symmetry_2 
_ccdc_geom_bond_type 
O1          Cr19   1.960       .  S
O1            C9   1.256       .  A
O2          Cr19   2.021       .  S
O2            C3   1.271       .  A
C3            O4   1.260       .  A
C3          C481   1.479       .  S
O4          Cr20   1.966       .  S
O5          Cr20   2.000       .  S
O5            C6   1.263       .  A
C6            O7   1.256       .  A
C6          C545   1.474       .  S
O7          Cr21   1.970       .  S
O8          Cr21   2.021       .  S
O8            C9   1.269       .  A
C9          C537   1.484       .  S
O10         Cr19   2.030       .  S
O10          C18   1.271       .  A
O11         Cr19   1.975       .  S
O11          C12   1.260       .  A
C12          O13   1.264       .  A
C12         C513   1.477       .  S
O13         Cr20   2.004       .  S
O14         Cr20   1.965       .  S
O14          C15   1.261       .  A
C15          O16   1.270       .  A
C15         C505   1.472       .  S
O16         Cr21   2.014       .  S
O17         Cr21   1.958       .  S
O17          C18   1.254       .  A
C18         C473   1.487       .  S
Cr19         O22   1.773       .  S
Cr20         O22   1.769       .  S
Cr21         O22   1.772       .  S
O23         Cr41   1.959       .  S
O23          C31   1.257       .  A
O24         Cr41   2.027       .  S
O24          C25   1.273       .  A
C25          O26   1.260       .  A
C25         C417   1.480       .  S
O26         Cr42   1.961       .  S
O27         Cr42   2.018       .  S
O27          C28   1.264       .  A
C28          O29   1.254       .  A
C28         C449   1.475       .  S
O29         Cr43   1.959       .  S
O30         Cr43   2.024       .  S
O30          C31   1.269       .  A
C31         C529   1.486       .  S
O32         Cr41   2.028       .  S
O32          C40   1.271       .  A
O33         Cr41   1.971       .  S
O33          C34   1.258       .  A
C34          O35   1.267       .  A
C34         C521   1.478       .  S
O35         Cr42   2.015       .  S
O36         Cr42   1.963       .  S
O36          C37   1.261       .  A
C37          O38   1.272       .  A
C37         C993   1.469       .  S
O38         Cr43   2.020       .  S
O39         Cr43   1.955       .  S
O39          C40   1.255       .  A
C40         C401   1.484       .  S
Cr41         O44   1.766       .  S
Cr42         O44   1.774       .  S
Cr43         O44   1.763       .  S
O45         Cr63   2.029       .  S
O45          C53   1.272       .  A
O46         Cr63   1.968       .  S
O46          C47   1.258       .  A
C47          O48   1.269       .  A
C47         C369   1.477       .  S
O48         Cr64   2.019       .  S
O49         Cr64   1.967       .  S
O49          C50   1.261       .  A
C50          O51   1.268       .  A
C50         C425   1.469       .  S
O51         Cr65   2.015       .  S
O52         Cr65   1.955       .  S
O52          C53   1.256       .  A
C53         C353   1.482       .  S
O54         Cr63   1.966       .  S
O54          C62   1.258       .  A
O55         Cr63   2.030       .  S
O55          C56   1.271       .  A
C56          O57   1.257       .  A
C56         C441   1.479       .  S
O57         Cr64   1.954       .  S
O58         Cr64   2.019       .  S
O58          C59   1.266       .  A
C59          O60   1.256       .  A
C59         C553   1.474       .  S
O60         Cr65   1.959       .  S
O61         Cr65   2.015       .  S
O61          C62   1.267       .  A
C62         C393   1.480       .  S
Cr63         O66   1.768       .  S
Cr64         O66   1.770       .  S
Cr65         O66   1.761       .  S
O67         Cr85   2.031       .  S
O67          C75   1.272       .  A
O68         Cr85   1.973       .  S
O68          C69   1.259       .  A
C69          O70   1.266       .  A
C69         C377   1.477       .  S
O70         Cr86   2.006       .  S
O71         Cr86   1.965       .  S
O71         C632   1.260       .  A
C72          O73   1.268       .  A
C72         O631   1.260       .  A
C72         C489   1.471       .  S
O73        Cr647   2.015       .  S
O74         Cr87   1.947       .  S
O74          C75   1.254       .  A
C75         C345   1.482       .  S
O76         Cr85   1.964       .  S
O76          C84   1.257       .  A
O77         Cr85   2.025       .  S
O77          C78   1.271       .  A
C78          O79   1.258       .  A
C78         C497   1.478       .  S
O79         Cr86   1.958       .  S
O80         Cr86   2.003       .  S
O80          C81   1.265       .  A
C81          O82   1.257       .  A
C81         C457   1.474       .  S
O82         Cr87   1.969       .  S
O83         Cr87   2.014       .  S
O83          C84   1.267       .  A
C84         C385   1.481       .  S
Cr85         O88   1.773       .  S
Cr86         O88   1.764       .  S
Cr87        O633   2.015       .  S
Cr87         O88   1.769       .  S
O89        Cr107   2.027       .  S
O89          C97   1.271       .  A
O90        Cr107   1.979       .  S
O90          C91   1.262       .  A
C91          O92   1.265       .  A
C91         C321   1.479       .  S
O92        Cr108   2.007       .  S
O93        Cr108   1.953       .  S
O93         C654   1.255       .  A
C94          O95   1.274       .  A
C94         O653   1.255       .  A
C94         C281   1.473       .  S
O95        Cr669   2.041       .  S
O96        Cr109   1.958       .  S
O96          C97   1.257       .  A
C97         C409   1.485       .  S
O98        Cr107   1.968       .  S
O98         C106   1.258       .  A
O99        Cr107   2.019       .  S
O99         C100   1.271       .  A
C100        O101   1.261       .  A
C100        C297   1.476       .  S
O101       Cr108   1.961       .  S
O102       Cr108   2.024       .  S
O102        C103   1.267       .  A
C103        O104   1.251       .  A
C103        C257   1.469       .  S
O104       Cr109   1.963       .  S
O105       Cr109   2.022       .  S
O105        C106   1.270       .  A
C106        C305   1.487       .  S
Cr107       O110   1.768       .  S
Cr108       O110   1.762       .  S
Cr109       O655   2.041       .  S
Cr109       O110   1.766       .  S
O111       Cr129   2.037       .  S
O111        C119   1.273       .  A
O112       Cr129   1.965       .  S
O112        C113   1.258       .  A
C113        O114   1.270       .  A
C113        C329   1.481       .  S
O114       Cr130   2.029       .  S
O115       Cr130   1.969       .  S
O115        C116   1.261       .  A
C116        O117   1.271       .  A
C116        C225   1.474       .  S
O117       Cr131   2.023       .  S
O118       Cr131   1.956       .  S
O118        C119   1.255       .  A
C119        C465   1.488       .  S
O120       Cr129   1.962       .  S
O120        C128   1.257       .  A
O121       Cr129   2.033       .  S
O121        C122   1.273       .  A
C122        O123   1.258       .  A
C122        C241   1.484       .  S
O123       Cr130   1.960       .  S
O124       Cr130   2.022       .  S
O124        C125   1.267       .  A
C125        O126   1.255       .  A
C125        C209   1.477       .  S
O126       Cr131   1.958       .  S
O127       Cr131   2.032       .  S
O127        C128   1.270       .  A
C128        C313   1.490       .  S
Cr129       O132   1.765       .  S
Cr130       O132   1.775       .  S
Cr131       O132   1.763       .  S
O133       Cr151   1.963       .  S
O133        C141   1.257       .  A
O134       Cr151   2.032       .  S
O134        C135   1.273       .  A
C135        O136   1.259       .  A
C135        C233   1.484       .  S
O136       Cr152   1.962       .  S
O137       Cr152   2.029       .  S
O137        C138   1.269       .  A
C138        O139   1.253       .  A
C138        C265   1.469       .  S
O139       Cr153   1.957       .  S
O140       Cr153   2.021       .  S
O140        C141   1.268       .  A
C141        C185   1.484       .  S
O142       Cr151   2.035       .  S
O142        C150   1.273       .  A
O143       Cr151   1.965       .  S
O143        C144   1.258       .  A
C144        O145   1.270       .  A
C144        C193   1.484       .  S
O145       Cr152   2.028       .  S
O146       Cr152   1.964       .  S
O146        C147   1.260       .  A
C147        O148   1.271       .  A
C147        C809   1.474       .  S
O148       Cr153   2.026       .  S
O149       Cr153   1.949       .  S
O149        C150   1.255       .  A
C150        C337   1.482       .  S
Cr151       O154   1.766       .  S
Cr152       O154   1.769       .  S
Cr153       O154   1.764       .  S
O155       Cr173   1.962       .  S
O155        C163   1.256       .  A
O156       Cr173   2.035       .  S
O156        C157   1.273       .  A
C157        O158   1.256       .  A
C157        C273   1.465       .  S
O158       Cr174   1.952       .  S
O159       Cr174   2.006       .  S
O159        C160   1.264       .  A
C160        O161   1.257       .  A
C160        C217   1.476       .  S
O161       Cr175   1.971       .  S
O162       Cr175   2.016       .  S
O162        C163   1.267       .  A
C163        C177   1.482       .  S
O164       Cr173   2.033       .  S
O164        C172   1.272       .  A
O165       Cr173   1.972       .  S
O165        C166   1.258       .  A
C166        O167   1.267       .  A
C166        C201   1.485       .  S
O167       Cr174   2.019       .  S
O168       Cr174   1.969       .  S
O168        C169   1.263       .  A
C169        O170   1.269       .  A
C169        C289   1.471       .  S
O170       Cr175   2.009       .  S
O171       Cr175   1.946       .  S
O171        C172   1.254       .  A
C172        C361   1.483       .  S
Cr173       O176   1.772       .  S
Cr174       O176   1.768       .  S
Cr175       O176   1.766       .  S
C177        C178   1.408       .  A
C177        C182   1.405       .  A
C178        C179   1.398       .  A
C178        H187   1.083       .  S
C179        C180   1.401       .  A
C179        H188   1.084       .  S
C180        C186   1.408       .  A
C180        C181   1.415       .  A
C181        C183   1.400       .  A
C181        C182   1.406       .  A
C182        H189   1.084       .  S
C183        C184   1.396       .  A
C183        H190   1.084       .  S
C184        C185   1.408       .  A
C184        H191   1.083       .  S
C185        C186   1.407       .  A
C186        H192   1.084       .  S
C193        C194   1.408       .  A
C193        C198   1.408       .  A
C194        C195   1.396       .  A
C194        H203   1.083       .  S
C195        C196   1.400   1_455  A
C195        H204   1.084       .  S
C196        C202   1.404       .  A
C196        C197   1.413   1_655  A
C197        C199   1.403   1_455  A
C197        C198   1.407       .  A
C198        H205   1.084       .  S
C199        C200   1.400       .  A
C199        H206   1.084   1_655  S
C200        C201   1.407       .  A
C200        H207   1.083       .  S
C201        C202   1.408       .  A
C202        H208   1.084       .  S
C209        C210   1.406   1_565  A
C209        C214   1.406       .  A
C210        C211   1.400       .  A
C210        H219   1.083       .  S
C211        C212   1.404       .  A
C211        H220   1.084       .  S
C212        C218   1.404       .  A
C212        C213   1.412   1_545  A
C213        C215   1.399       .  A
C213        C214   1.397       .  A
C214        H221   1.084       .  S
C215        C216   1.392       .  A
C215        H222   1.084       .  S
C216        C217   1.406   1_565  A
C216        H223   1.083       .  S
C217        C218   1.408       .  A
C218        H224   1.084       .  S
C225        C226   1.402       .  A
C225        C230   1.407       .  A
C226        C227   1.399       .  A
C226        H235   1.083       .  S
C227        C228   1.404       .  A
C227        H236   1.084       .  S
C228        C234   1.403   1_565  A
C228        C229   1.412   1_565  A
C229        C231   1.404       .  A
C229        C230   1.404   1_545  A
C230        H237   1.085       .  S
C231        C232   1.400       .  A
C231        H238   1.084       .  S
C232        C233   1.405       .  A
C232        H239   1.083       .  S
C233        C234   1.410       .  A
C234        H240   1.084   1_545  S
C241        C242   1.404       .  A
C241        C246   1.411   1_565  A
C242        C243   1.398       .  A
C242        H251   1.083       .  S
C243        C244   1.403   1_565  A
C243        H252   1.084       .  S
C244        C250   1.402       .  A
C244        C245   1.412       .  A
C245        C247   1.405       .  A
C245        C246   1.404       .  A
C246        H253   1.084       .  S
C247        C248   1.400       .  A
C247        H254   1.084       .  S
C248        C249   1.403       .  A
C248        H255   1.083       .  S
C249        C707   1.474   1_554  S
C249        C250   1.406       .  A
C250        H256   1.085   1_554  S
C257        C258   1.405       .  A
C257        C822   1.402       .  A
C258        C259   1.398       .  A
C258        H267   1.083       .  S
C259        C260   1.403   1_554  A
C259        H268   1.084       .  S
C260        C826   1.403   1_565  A
C260        C821   1.415   1_565  A
C261        C263   1.400       .  A
C261        C262   1.400   1_545  A
C261        C820   1.415   1_545  A
C262        C817   1.402       .  A
C262        H269   1.085       .  S
C263        C264   1.394       .  A
C263        H270   1.084       .  S
C264        C265   1.405       .  A
C264        H271   1.083       .  S
C265        C266   1.404       .  A
C266        C820   1.403   1_545  A
C266        H832   1.085       .  S
H272        C826   1.085       .  S
C273        C274   1.404       .  A
C273        C278   1.400       .  A
C274        C275   1.396       .  A
C274        H283   1.084       .  S
C275        C276   1.401   1_545  A
C275        H284   1.084   1_545  S
C276        C282   1.405       .  A
C276        C277   1.417       .  A
C277        C279   1.399       .  A
C277        C278   1.405   1_565  A
C278        H285   1.085       .  S
C279        C280   1.395       .  A
C279        H286   1.084       .  S
C280        C281   1.406       .  A
C280        H287   1.083       .  S
C281        C282   1.403       .  A
C282        H288   1.084       .  S
C289        C290   1.404       .  A
C289        C294   1.405       .  A
C290        C291   1.395       .  A
C290        H299   1.083       .  S
C291        C292   1.401       .  A
C291        H300   1.084       .  S
C292        C298   1.399   1_545  A
C292        C293   1.413       .  A
C293        C295   1.402   1_545  A
C293        C294   1.401       .  A
C294        H301   1.084       .  S
C295        C296   1.396       .  A
C295        H302   1.084       .  S
C296        C297   1.406       .  A
C296        H303   1.083       .  S
C297        C298   1.406       .  A
C298        H304   1.084   1_565  S
C305        C306   1.409       .  A
C305        C310   1.406       .  A
C306        C307   1.400       .  A
C306        H315   1.083       .  S
C307        C308   1.402       .  A
C307        H316   1.084       .  S
C308        C314   1.412       .  A
C308        C309   1.415       .  A
C309        C311   1.399       .  A
C309        C310   1.408       .  A
C310        H317   1.084       .  S
C311        C312   1.396       .  A
C311        H318   1.084       .  S
C312        C313   1.410       .  A
C312        H319   1.083       .  S
C313        C314   1.409       .  A
C314        H320   1.084       .  S
C321        C322   1.407       .  A
C321        C326   1.404       .  A
C322        C323   1.399       .  A
C322        H331   1.083       .  S
C323        C324   1.403   1_655  A
C323        H332   1.084       .  S
C324        C330   1.407       .  A
C324        C325   1.415   1_455  A
C325        C327   1.399   1_655  A
C325        C326   1.403       .  A
C326        H333   1.084       .  S
C327        C328   1.394       .  A
C327        H334   1.084       .  S
C328        C329   1.406       .  A
C328        H335   1.083       .  S
C329        C330   1.408       .  A
C330        H336   1.084       .  S
C337        C338   1.403       .  A
C337        C342   1.412       .  A
C338        C339   1.399       .  A
C338        H347   1.083       .  S
C339        C340   1.405       .  A
C339        H348   1.084       .  S
C340        C346   1.400       .  A
C340        C901   1.409       .  A
C341        C343   1.406       .  A
C341        C900   1.409   1_554  A
C341        C902   1.401   1_554  A
C342        C901   1.401       .  A
C342        H909   1.084       .  S
C343        C344   1.400       .  A
C343        H350   1.083       .  S
C344        C345   1.403       .  A
C344        H351   1.083       .  S
C345        C906   1.412       .  A
C346        C905   1.412       .  A
C346        H352   1.084       .  S
H349        C902   1.084   1_554  S
C353        C354   1.404       .  A
C353        C358   1.412       .  A
C354        C355   1.397       .  A
C354        H363   1.083       .  S
C355        C356   1.404       .  A
C355        H364   1.084       .  S
C356        C362   1.399       .  A
C356        C357   1.410       .  A
C357        C359   1.406       .  A
C357        C358   1.403       .  A
C358        H365   1.084       .  S
C359        C360   1.401       .  A
C359        H366   1.083       .  S
C360        C361   1.403       .  A
C360        H367   1.083       .  S
C361        C362   1.412       .  A
C362        H368   1.084       .  S
C369        C370   1.406       .  A
C369        C374   1.405       .  A
C370        C371   1.398       .  A
C370        H379   1.083       .  S
C371        C372   1.402       .  A
C371        H380   1.084       .  S
C372        C378   1.404       .  A
C372        C373   1.414       .  A
C373        C375   1.401       .  A
C373        C374   1.402       .  A
C374        H381   1.084       .  S
C375        C376   1.395       .  A
C375        H382   1.084       .  S
C376        C377   1.405       .  A
C376        H383   1.083       .  S
C377        C378   1.407       .  A
C378        H384   1.084       .  S
C385        C386   1.408       .  A
C385        C390   1.405       .  A
C386        C387   1.396       .  A
C386        H395   1.083       .  S
C387        C388   1.401       .  A
C387        H396   1.084       .  S
C388        C394   1.404   1_455  A
C388        C389   1.415       .  A
C389        C391   1.401   1_455  A
C389        C390   1.404       .  A
C390        H397   1.084       .  S
C391        C392   1.396       .  A
C391        H398   1.084       .  S
C392        C393   1.407       .  A
C392        H399   1.083       .  S
C393        C394   1.406       .  A
C394        H400   1.084       .  S
C401        C402   1.404       .  A
C401        C406   1.412       .  A
C402        C403   1.399       .  A
C402        H411   1.083       .  S
C403        C404   1.404       .  A
C403        H412   1.083       .  S
C404        C405   1.411       .  A
C404        C970   1.403       .  A
C405        C406   1.403       .  A
C405        C967   1.405       .  A
C406        H413   1.084       .  S
C407        C408   1.400       .  A
C407        C965   1.405       .  A
C407        H414   1.083       .  S
C408        C409   1.405       .  A
C408        H415   1.083       .  S
C409        C410   1.411       .  A
C410        C964   1.403   1_554  A
C410        H976   1.084   1_554  S
H416        C970   1.084       .  S
C417        C418   1.405       .  A
C417        C422   1.409       .  A
C418        C419   1.398       .  A
C418        H427   1.083       .  S
C419        C420   1.403       .  A
C419        H428   1.084       .  S
C420        C426   1.402       .  A
C420        C421   1.413       .  A
C421        C423   1.404       .  A
C421        C422   1.401       .  A
C422        H429   1.084       .  S
C423        C424   1.398       .  A
C423        H430   1.084       .  S
C424        C425   1.402       .  A
C424        H431   1.083       .  S
C425        C426   1.405       .  A
C426        H432   1.085       .  S
C433        C597   1.469   1_554  S
C433        C434   1.402       .  A
C433        C438   1.407       .  A
C434        C435   1.396       .  A
C434        H443   1.083       .  S
C435        C436   1.403       .  A
C435        H444   1.084       .  S
C436        C442   1.399       .  A
C436        C437   1.412       .  A
C437        C439   1.404       .  A
C437        C438   1.402       .  A
C438        H445   1.085   1_554  S
C439        C440   1.399       .  A
C439        H446   1.084       .  S
C440        C441   1.404       .  A
C440        H447   1.083       .  S
C441        C442   1.409       .  A
C442        H448   1.084       .  S
C449        C450   1.406       .  A
C449        C454   1.404       .  A
C450        C451   1.401       .  A
C450        H459   1.083       .  S
C451        C452   1.405       .  A
C451        H460   1.084       .  S
C452        C458   1.404   1_655  A
C452       C1013   1.412       .  A
C453        C455   1.399   1_656  A
C453       C1012   1.412   1_556  A
C453       C1014   1.395       .  A
C454       C1013   1.395       .  A
C454       H1021   1.084       .  S
C455        C456   1.390       .  A
C455        H462   1.084   1_554  S
C456        C457   1.405       .  A
C456        H463   1.083       .  S
C457       C1018   1.409       .  A
C458       C1017   1.409       .  A
C458        H464   1.084       .  S
H461       C1014   1.084       .  S
C465        C466   1.405       .  A
C465        C470   1.413       .  A
C466        C467   1.401       .  A
C466        H475   1.083       .  S
C467        C468   1.406       .  A
C467        H476   1.084       .  S
C468        C474   1.405       .  A
C468        C469   1.410       .  A
C469        C471   1.405       .  A
C469        C470   1.404       .  A
C470        H477   1.084       .  S
C471        C472   1.401       .  A
C471        H478   1.084       .  S
C472        C473   1.404       .  A
C472        H479   1.083       .  S
C473        C474   1.413       .  A
C474        H480   1.084       .  S
C481        C482   1.405       .  A
C481        C486   1.409       .  A
C482        C483   1.395       .  A
C482        H491   1.083       .  S
C483        C484   1.401       .  A
C483        H492   1.084       .  S
C484        C490   1.399       .  A
C484        C485   1.413       .  A
C485        C487   1.404       .  A
C485        C486   1.403       .  A
C486        H493   1.084       .  S
C487        C488   1.399       .  A
C487        H494   1.084       .  S
C488        C489   1.404       .  A
C488        H495   1.083       .  S
C489        C490   1.404       .  A
C490        H496   1.085       .  S
C497        C498   1.404       .  A
C497        C502   1.409       .  A
C498        C499   1.397       .  A
C498        H507   1.083       .  S
C499        C500   1.402       .  A
C499        H508   1.084       .  S
C500        C506   1.400       .  A
C500        C501   1.412       .  A
C501        C503   1.403       .  A
C501        C502   1.400       .  A
C502        H509   1.084       .  S
C503        C504   1.397       .  A
C503        H510   1.084       .  S
C504        C505   1.404       .  A
C504        H511   1.083       .  S
C505        C506   1.406       .  A
C506        H512   1.084       .  S
C513        C514   1.406       .  A
C513        C518   1.405       .  A
C514        C515   1.397       .  A
C514        H523   1.083       .  S
C515        C516   1.401       .  A
C515        H524   1.084       .  S
C516        C522   1.403       .  A
C516        C517   1.414       .  A
C517        C519   1.401       .  A
C517        C518   1.402       .  A
C518        H525   1.084       .  S
C519        C520   1.396       .  A
C519        H526   1.084       .  S
C520        C521   1.405       .  A
C520        H527   1.083       .  S
C521        C522   1.406       .  A
C522        H528   1.084       .  S
C529        C530   1.409       .  A
C529        C534   1.407       .  A
C530        C531   1.395       .  A
C530        H539   1.083       .  S
C531        C532   1.399   1_655  A
C531        H540   1.084       .  S
C532        C538   1.406       .  A
C532        C533   1.415       .  A
C533        C535   1.401       .  A
C533        C534   1.409   1_455  A
C534        H541   1.084       .  S
C535        C536   1.398       .  A
C535        H542   1.084       .  S
C536        C537   1.409       .  A
C536        H543   1.083       .  S
C537        C538   1.405       .  A
C538        H544   1.084       .  S
C545        C546   1.405       .  A
C545        C550   1.409       .  A
C546        C547   1.391       .  A
C546        H555   1.083       .  S
C547        C548   1.399       .  A
C547        H556   1.084       .  S
C548        C554   1.395   1_455  A
C548        C549   1.412   1_455  A
C549        C551   1.405       .  A
C549        C550   1.404   1_655  A
C550        H557   1.084       .  S
C551        C552   1.400       .  A
C551        H558   1.083       .  S
C552        C553   1.405       .  A
C552        H559   1.083       .  S
C553        C554   1.404       .  A
C554        H560   1.085       .  S
O561       Cr579   1.960       .  S
O561        C569   1.256       .  A
O562       Cr579   2.021       .  S
O562        C563   1.271       .  A
C563        O564   1.260       .  A
C563       C1041   1.479       .  S
O564       Cr580   1.966       .  S
O565       Cr580   2.000       .  S
O565        C566   1.263       .  A
C566        O567   1.256       .  A
C566       C1105   1.474       .  S
O567       Cr581   1.970       .  S
O568       Cr581   2.021       .  S
O568        C569   1.269       .  A
C569       C1097   1.484       .  S
O570       Cr579   2.030       .  S
O570        C578   1.271       .  A
O571       Cr579   1.975       .  S
O571        C572   1.260       .  A
C572        O573   1.264       .  A
C572       C1073   1.477       .  S
O573       Cr580   2.004       .  S
O574       Cr580   1.965       .  S
O574        C575   1.261       .  A
C575        O576   1.270       .  A
C575       C1065   1.472       .  S
O576       Cr581   2.014       .  S
O577       Cr581   1.958       .  S
O577        C578   1.254       .  A
C578       C1033   1.487       .  S
Cr579       O582   1.773       .  S
Cr580       O582   1.769       .  S
Cr581       O582   1.772       .  S
O583       Cr601   1.959       .  S
O583        C591   1.257       .  A
O584       Cr601   2.027       .  S
O584        C585   1.273       .  A
C585        O586   1.260       .  A
C585        C977   1.480       .  S
O586       Cr602   1.961       .  S
O587       Cr602   2.018       .  S
O587        C588   1.264       .  A
C588        O589   1.254       .  A
C588       C1009   1.475       .  S
O589       Cr603   1.959       .  S
O590       Cr603   2.024       .  S
O590        C591   1.269       .  A
C591       C1089   1.486       .  S
O592       Cr601   2.028       .  S
O592        C600   1.271       .  A
O593       Cr601   1.971       .  S
O593        C594   1.258       .  A
C594        O595   1.267       .  A
C594       C1081   1.478       .  S
O595       Cr602   2.015       .  S
O596       Cr602   1.963       .  S
O596        C597   1.261       .  A
C597        O598   1.272       .  A
O598       Cr603   2.020       .  S
O599       Cr603   1.955       .  S
O599        C600   1.255       .  A
C600        C961   1.484       .  S
Cr601       O604   1.766       .  S
Cr602       O604   1.774       .  S
Cr603       O604   1.763       .  S
O605       Cr623   2.029       .  S
O605        C613   1.272       .  A
O606       Cr623   1.968       .  S
O606        C607   1.258       .  A
C607        O608   1.269       .  A
C607        C929   1.477       .  S
O608       Cr624   2.019       .  S
O609       Cr624   1.967       .  S
O609        C610   1.261       .  A
C610        O611   1.268       .  A
C610        C985   1.469       .  S
O611       Cr625   2.015       .  S
O612       Cr625   1.955       .  S
O612        C613   1.256       .  A
C613        C913   1.482       .  S
O614       Cr623   1.966       .  S
O614        C622   1.258       .  A
O615       Cr623   2.030       .  S
O615        C616   1.271       .  A
C616        O617   1.257       .  A
C616       C1001   1.479       .  S
O617       Cr624   1.954       .  S
O618       Cr624   2.019       .  S
O618        C619   1.266       .  A
C619        O620   1.256       .  A
C619       C1113   1.474       .  S
O620       Cr625   1.959       .  S
O621       Cr625   2.015       .  S
O621        C622   1.267       .  A
C622        C953   1.480       .  S
Cr623       O626   1.768       .  S
Cr624       O626   1.770       .  S
Cr625       O626   1.761       .  S
O627       Cr645   2.031       .  S
O627        C635   1.272       .  A
O628       Cr645   1.973       .  S
O628        C629   1.259       .  A
C629        O630   1.266       .  A
C629        C937   1.477       .  S
O630       Cr646   2.006       .  S
O631       Cr646   1.965       .  S
C632        O633   1.268       .  A
C632       C1049   1.471   1_554  S
O634       Cr647   1.947       .  S
O634        C635   1.254       .  A
C635        C905   1.482       .  S
O636       Cr645   1.964       .  S
O636        C644   1.257       .  A
O637       Cr645   2.025       .  S
O637        C638   1.271       .  A
C638        O639   1.258       .  A
C638       C1057   1.478       .  S
O639       Cr646   1.958       .  S
O640       Cr646   2.003       .  S
O640        C641   1.265       .  A
C641        O642   1.257       .  A
C641       C1017   1.474       .  S
O642       Cr647   1.969       .  S
O643       Cr647   2.014       .  S
O643        C644   1.267       .  A
C644        C945   1.481       .  S
Cr645       O648   1.773       .  S
Cr646       O648   1.764       .  S
Cr647       O648   1.769       .  S
O649       Cr667   2.027       .  S
O649        C657   1.271       .  A
O650       Cr667   1.979       .  S
O650        C651   1.262       .  A
C651        O652   1.265       .  A
C651        C881   1.479       .  S
O652       Cr668   2.007       .  S
O653       Cr668   1.953       .  S
C654        O655   1.274       .  A
C654        C841   1.473   1_554  S
O656       Cr669   1.958       .  S
O656        C657   1.257       .  A
C657        C969   1.485       .  S
O658       Cr667   1.968       .  S
O658        C666   1.258       .  A
O659       Cr667   2.019       .  S
O659        C660   1.271       .  A
C660        O661   1.261       .  A
C660        C857   1.476       .  S
O661       Cr668   1.961       .  S
O662       Cr668   2.024       .  S
O662        C663   1.267       .  A
C663        O664   1.251       .  A
C663        C817   1.469       .  S
O664       Cr669   1.963       .  S
O665       Cr669   2.022       .  S
O665        C666   1.270       .  A
C666        C865   1.487       .  S
Cr667       O670   1.768       .  S
Cr668       O670   1.762       .  S
Cr669       O670   1.766       .  S
O671       Cr689   2.037       .  S
O671        C679   1.273       .  A
O672       Cr689   1.965       .  S
O672        C673   1.258       .  A
C673        O674   1.270       .  A
C673        C889   1.481       .  S
O674       Cr690   2.029       .  S
O675       Cr690   1.969       .  S
O675        C676   1.261       .  A
C676        O677   1.271       .  A
C676        C785   1.474       .  S
O677       Cr691   2.023       .  S
O678       Cr691   1.956       .  S
O678        C679   1.255       .  A
C679       C1025   1.488       .  S
O680       Cr689   1.962       .  S
O680        C688   1.257       .  A
O681       Cr689   2.033       .  S
O681        C682   1.273       .  A
C682        O683   1.258       .  A
C682        C801   1.484       .  S
O683       Cr690   1.960       .  S
O684       Cr690   2.022       .  S
O684        C685   1.267       .  A
C685        O686   1.255       .  A
C685        C769   1.477       .  S
O686       Cr691   1.958       .  S
O687       Cr691   2.032       .  S
O687        C688   1.270       .  A
C688        C873   1.490       .  S
Cr689       O692   1.765       .  S
Cr690       O692   1.775       .  S
Cr691       O692   1.763       .  S
O693       Cr711   1.963       .  S
O693        C701   1.257       .  A
O694       Cr711   2.032       .  S
O694        C695   1.273       .  A
C695        O696   1.259       .  A
C695        C793   1.484       .  S
O696       Cr712   1.962       .  S
O697       Cr712   2.029       .  S
O697        C698   1.269       .  A
C698        O699   1.253       .  A
C698        C825   1.469       .  S
O699       Cr713   1.957       .  S
O700       Cr713   2.021       .  S
O700        C701   1.268       .  A
C701        C745   1.484       .  S
O702       Cr711   2.035       .  S
O702        C710   1.273       .  A
O703       Cr711   1.965       .  S
O703        C704   1.258       .  A
C704        O705   1.270       .  A
C704        C753   1.484       .  S
O705       Cr712   2.028       .  S
O706       Cr712   1.964       .  S
O706        C707   1.260       .  A
C707        O708   1.271       .  A
O708       Cr713   2.026       .  S
O709       Cr713   1.949       .  S
O709        C710   1.255       .  A
C710        C897   1.482       .  S
Cr711       O714   1.766       .  S
Cr712       O714   1.769       .  S
Cr713       O714   1.764       .  S
O715       Cr733   1.962       .  S
O715        C723   1.256       .  A
O716       Cr733   2.035       .  S
O716        C717   1.273       .  A
C717        O718   1.256       .  A
C717        C833   1.465       .  S
O718       Cr734   1.952       .  S
O719       Cr734   2.006       .  S
O719        C720   1.264       .  A
C720        O721   1.257       .  A
C720        C777   1.476       .  S
O721       Cr735   1.971       .  S
O722       Cr735   2.016       .  S
O722        C723   1.267       .  A
C723        C737   1.482       .  S
O724       Cr733   2.033       .  S
O724        C732   1.272       .  A
O725       Cr733   1.972       .  S
O725        C726   1.258       .  A
C726        O727   1.267       .  A
C726        C761   1.485       .  S
O727       Cr734   2.019       .  S
O728       Cr734   1.969       .  S
O728        C729   1.263       .  A
C729        O730   1.269       .  A
C729        C849   1.471       .  S
O730       Cr735   2.009       .  S
O731       Cr735   1.946       .  S
O731        C732   1.254       .  A
C732        C921   1.483       .  S
Cr733       O736   1.772       .  S
Cr734       O736   1.768       .  S
Cr735       O736   1.766       .  S
C737        C738   1.408       .  A
C737        C742   1.405       .  A
C738        C739   1.398       .  A
C738        H747   1.083       .  S
C739        C740   1.401       .  A
C739        H748   1.084       .  S
C740        C746   1.408       .  A
C740        C741   1.415       .  A
C741        C743   1.400       .  A
C741        C742   1.406       .  A
C742        H749   1.084       .  S
C743        C744   1.396       .  A
C743        H750   1.084       .  S
C744        C745   1.408       .  A
C744        H751   1.083       .  S
C745        C746   1.407       .  A
C746        H752   1.084       .  S
C753        C754   1.408       .  A
C753        C758   1.408       .  A
C754        C755   1.396       .  A
C754        H763   1.083       .  S
C755        C756   1.400   1_455  A
C755        H764   1.084       .  S
C756        C762   1.404       .  A
C756        C757   1.413   1_655  A
C757        C759   1.403   1_455  A
C757        C758   1.407       .  A
C758        H765   1.084       .  S
C759        C760   1.400       .  A
C759        H766   1.084   1_655  S
C760        C761   1.407       .  A
C760        H767   1.083       .  S
C761        C762   1.408       .  A
C762        H768   1.084       .  S
C769        C770   1.406   1_565  A
C769        C774   1.406       .  A
C770        C771   1.400       .  A
C770        H779   1.083       .  S
C771        C772   1.404       .  A
C771        H780   1.084       .  S
C772        C778   1.404       .  A
C772        C773   1.412   1_545  A
C773        C775   1.399       .  A
C773        C774   1.397       .  A
C774        H781   1.084       .  S
C775        C776   1.392       .  A
C775        H782   1.084       .  S
C776        C777   1.406   1_565  A
C776        H783   1.083       .  S
C777        C778   1.408       .  A
C778        H784   1.084       .  S
C785        C786   1.402       .  A
C785        C790   1.407       .  A
C786        C787   1.399       .  A
C786        H795   1.083       .  S
C787        C788   1.404       .  A
C787        H796   1.084       .  S
C788        C794   1.403   1_565  A
C788        C789   1.412   1_565  A
C789        C791   1.404       .  A
C789        C790   1.404   1_545  A
C790        H797   1.085       .  S
C791        C792   1.400       .  A
C791        H798   1.084       .  S
C792        C793   1.405       .  A
C792        H799   1.083       .  S
C793        C794   1.410       .  A
C794        H800   1.084   1_545  S
C801        C802   1.404       .  A
C801        C806   1.411   1_565  A
C802        C803   1.398       .  A
C802        H811   1.083       .  S
C803        C804   1.403   1_565  A
C803        H812   1.084       .  S
C804        C810   1.402       .  A
C804        C805   1.412       .  A
C805        C807   1.405       .  A
C805        C806   1.404       .  A
C806        H813   1.084       .  S
C807        C808   1.400       .  A
C807        H814   1.084       .  S
C808        C809   1.403       .  A
C808        H815   1.083       .  S
C809        C810   1.406       .  A
C810        H816   1.085       .  S
C817        C818   1.405       .  A
C818        C819   1.398       .  A
C818        H827   1.083       .  S
C819        C820   1.403       .  A
C819        H828   1.084       .  S
C821        C823   1.400       .  A
C821        C822   1.400   1_546  A
C822        H829   1.085   1_554  S
C823        C824   1.394       .  A
C823        H830   1.084       .  S
C824        C825   1.405       .  A
C824        H831   1.083       .  S
C825        C826   1.404       .  A
C833        C834   1.404       .  A
C833        C838   1.400       .  A
C834        C835   1.396       .  A
C834        H843   1.084       .  S
C835        C836   1.401   1_545  A
C835        H844   1.084   1_545  S
C836        C842   1.405       .  A
C836        C837   1.417       .  A
C837        C839   1.399       .  A
C837        C838   1.405   1_565  A
C838        H845   1.085       .  S
C839        C840   1.395       .  A
C839        H846   1.084       .  S
C840        C841   1.406       .  A
C840        H847   1.083       .  S
C841        C842   1.403       .  A
C842        H848   1.084       .  S
C849        C850   1.404       .  A
C849        C854   1.405       .  A
C850        C851   1.395       .  A
C850        H859   1.083       .  S
C851        C852   1.401       .  A
C851        H860   1.084       .  S
C852        C858   1.399   1_545  A
C852        C853   1.413       .  A
C853        C855   1.402   1_545  A
C853        C854   1.401       .  A
C854        H861   1.084       .  S
C855        C856   1.396       .  A
C855        H862   1.084       .  S
C856        C857   1.406       .  A
C856        H863   1.083       .  S
C857        C858   1.406       .  A
C858        H864   1.084   1_565  S
C865        C866   1.409       .  A
C865        C870   1.406       .  A
C866        C867   1.400       .  A
C866        H875   1.083       .  S
C867        C868   1.402       .  A
C867        H876   1.084       .  S
C868        C874   1.412       .  A
C868        C869   1.415       .  A
C869        C871   1.399       .  A
C869        C870   1.408       .  A
C870        H877   1.084       .  S
C871        C872   1.396       .  A
C871        H878   1.084       .  S
C872        C873   1.410       .  A
C872        H879   1.083       .  S
C873        C874   1.409       .  A
C874        H880   1.084       .  S
C881        C882   1.407       .  A
C881        C886   1.404       .  A
C882        C883   1.399       .  A
C882        H891   1.083       .  S
C883        C884   1.403   1_655  A
C883        H892   1.084       .  S
C884        C890   1.407       .  A
C884        C885   1.415   1_455  A
C885        C887   1.399   1_655  A
C885        C886   1.403       .  A
C886        H893   1.084       .  S
C887        C888   1.394       .  A
C887        H894   1.084       .  S
C888        C889   1.406       .  A
C888        H895   1.083       .  S
C889        C890   1.408       .  A
C890        H896   1.084       .  S
C897        C898   1.403       .  A
C897        C902   1.412       .  A
C898        C899   1.399       .  A
C898        H907   1.083       .  S
C899        C900   1.405       .  A
C899        H908   1.084       .  S
C900        C906   1.400   1_556  A
C901        C903   1.406       .  A
C903        C904   1.400       .  A
C903        H910   1.083       .  S
C904        C905   1.403       .  A
C904        H911   1.083       .  S
C906        H912   1.084   1_554  S
C913        C914   1.404       .  A
C913        C918   1.412       .  A
C914        C915   1.397       .  A
C914        H923   1.083       .  S
C915        C916   1.404       .  A
C915        H924   1.084       .  S
C916        C922   1.399       .  A
C916        C917   1.410       .  A
C917        C919   1.406       .  A
C917        C918   1.403       .  A
C918        H925   1.084       .  S
C919        C920   1.401       .  A
C919        H926   1.083       .  S
C920        C921   1.403       .  A
C920        H927   1.083       .  S
C921        C922   1.412       .  A
C922        H928   1.084       .  S
C929        C930   1.406       .  A
C929        C934   1.405       .  A
C930        C931   1.398       .  A
C930        H939   1.083       .  S
C931        C932   1.402       .  A
C931        H940   1.084       .  S
C932        C938   1.404       .  A
C932        C933   1.414       .  A
C933        C935   1.401       .  A
C933        C934   1.402       .  A
C934        H941   1.084       .  S
C935        C936   1.395       .  A
C935        H942   1.084       .  S
C936        C937   1.405       .  A
C936        H943   1.083       .  S
C937        C938   1.407       .  A
C938        H944   1.084       .  S
C945        C946   1.408       .  A
C945        C950   1.405       .  A
C946        C947   1.396       .  A
C946        H955   1.083       .  S
C947        C948   1.401       .  A
C947        H956   1.084       .  S
C948        C954   1.404   1_455  A
C948        C949   1.415       .  A
C949        C951   1.401   1_455  A
C949        C950   1.404       .  A
C950        H957   1.084       .  S
C951        C952   1.396       .  A
C951        H958   1.084       .  S
C952        C953   1.407       .  A
C952        H959   1.083       .  S
C953        C954   1.406       .  A
C954        H960   1.084       .  S
C961        C962   1.404       .  A
C961        C966   1.412       .  A
C962        C963   1.399       .  A
C962        H971   1.083       .  S
C963        C964   1.404       .  A
C963        H972   1.083       .  S
C964        C965   1.411   1_556  A
C965        C966   1.403   1_554  A
C966        H973   1.084   1_556  S
C967        C968   1.400       .  A
C967        H974   1.083       .  S
C968        C969   1.405       .  A
C968        H975   1.083       .  S
C969        C970   1.411       .  A
C977        C978   1.405       .  A
C977        C982   1.409       .  A
C978        C979   1.398       .  A
C978        H987   1.083       .  S
C979        C980   1.403       .  A
C979        H988   1.084       .  S
C980        C986   1.402       .  A
C980        C981   1.413       .  A
C981        C983   1.404       .  A
C981        C982   1.401       .  A
C982        H989   1.084       .  S
C983        C984   1.398       .  A
C983        H990   1.084       .  S
C984        C985   1.402       .  A
C984        H991   1.083       .  S
C985        C986   1.405       .  A
C986        H992   1.085       .  S
C993        C994   1.402       .  A
C993        C998   1.407       .  A
C994        C995   1.396       .  A
C994       H1003   1.083       .  S
C995        C996   1.403       .  A
C995       H1004   1.084       .  S
C996       C1002   1.399       .  A
C996        C997   1.412       .  A
C997        C999   1.404       .  A
C997        C998   1.402       .  A
C998       H1005   1.085       .  S
C999       C1000   1.399       .  A
C999       H1006   1.084       .  S
C1000      C1001   1.404       .  A
C1000      H1007   1.083       .  S
C1001      C1002   1.409       .  A
C1002      H1008   1.084       .  S
C1009      C1010   1.406       .  A
C1009      C1014   1.404       .  A
C1010      C1011   1.401       .  A
C1010      H1019   1.083       .  S
C1011      C1012   1.405   1_556  A
C1011      H1020   1.084       .  S
C1012      C1018   1.404   1_655  A
C1013      C1015   1.399   1_655  A
C1015      C1016   1.390       .  A
C1015      H1022   1.084       .  S
C1016      C1017   1.405       .  A
C1016      H1023   1.083       .  S
C1018      H1024   1.084       .  S
C1025      C1026   1.405       .  A
C1025      C1030   1.413       .  A
C1026      C1027   1.401       .  A
C1026      H1035   1.083       .  S
C1027      C1028   1.406       .  A
C1027      H1036   1.084       .  S
C1028      C1034   1.405       .  A
C1028      C1029   1.410       .  A
C1029      C1031   1.405       .  A
C1029      C1030   1.404       .  A
C1030      H1037   1.084       .  S
C1031      C1032   1.401       .  A
C1031      H1038   1.084       .  S
C1032      C1033   1.404       .  A
C1032      H1039   1.083       .  S
C1033      C1034   1.413       .  A
C1034      H1040   1.084       .  S
C1041      C1042   1.405       .  A
C1041      C1046   1.409       .  A
C1042      C1043   1.395       .  A
C1042      H1051   1.083       .  S
C1043      C1044   1.401       .  A
C1043      H1052   1.084       .  S
C1044      C1050   1.399       .  A
C1044      C1045   1.413       .  A
C1045      C1047   1.404       .  A
C1045      C1046   1.403       .  A
C1046      H1053   1.084       .  S
C1047      C1048   1.399       .  A
C1047      H1054   1.084       .  S
C1048      C1049   1.404       .  A
C1048      H1055   1.083       .  S
C1049      C1050   1.404       .  A
C1050      H1056   1.085       .  S
C1057      C1058   1.404       .  A
C1057      C1062   1.409       .  A
C1058      C1059   1.397       .  A
C1058      H1067   1.083       .  S
C1059      C1060   1.402       .  A
C1059      H1068   1.084       .  S
C1060      C1066   1.400       .  A
C1060      C1061   1.412       .  A
C1061      C1063   1.403       .  A
C1061      C1062   1.400       .  A
C1062      H1069   1.084       .  S
C1063      C1064   1.397       .  A
C1063      H1070   1.084       .  S
C1064      C1065   1.404       .  A
C1064      H1071   1.083       .  S
C1065      C1066   1.406       .  A
C1066      H1072   1.084       .  S
C1073      C1074   1.406       .  A
C1073      C1078   1.405       .  A
C1074      C1075   1.397       .  A
C1074      H1083   1.083       .  S
C1075      C1076   1.401       .  A
C1075      H1084   1.084       .  S
C1076      C1082   1.403       .  A
C1076      C1077   1.414       .  A
C1077      C1079   1.401       .  A
C1077      C1078   1.402       .  A
C1078      H1085   1.084       .  S
C1079      C1080   1.396       .  A
C1079      H1086   1.084       .  S
C1080      C1081   1.405       .  A
C1080      H1087   1.083       .  S
C1081      C1082   1.406       .  A
C1082      H1088   1.084       .  S
C1089      C1090   1.409       .  A
C1089      C1094   1.407       .  A
C1090      C1091   1.395       .  A
C1090      H1099   1.083       .  S
C1091      C1092   1.399   1_655  A
C1091      H1100   1.084       .  S
C1092      C1098   1.406       .  A
C1092      C1093   1.415       .  A
C1093      C1095   1.401       .  A
C1093      C1094   1.409   1_455  A
C1094      H1101   1.084       .  S
C1095      C1096   1.398       .  A
C1095      H1102   1.084       .  S
C1096      C1097   1.409       .  A
C1096      H1103   1.083       .  S
C1097      C1098   1.405       .  A
C1098      H1104   1.084       .  S
C1105      C1106   1.405       .  A
C1105      C1110   1.409       .  A
C1106      C1107   1.391       .  A
C1106      H1115   1.083       .  S
C1107      C1108   1.399       .  A
C1107      H1116   1.084       .  S
C1108      C1114   1.395   1_455  A
C1108      C1109   1.412   1_455  A
C1109      C1111   1.405       .  A
C1109      C1110   1.404   1_655  A
C1110      H1117   1.084       .  S
C1111      C1112   1.400       .  A
C1111      H1118   1.083       .  S
C1112      C1113   1.405       .  A
C1112      H1119   1.083       .  S
C1113      C1114   1.404       .  A
C1114      H1120   1.085       .  S
