geometry optimzed in LAMMPS
_audit_creation_date              2020-12-01 
_audit_creation_method            'lammps2cif' 
_symmetry_space_group_name_H-M    'P1' 
_symmetry_Int_Tables_number       1 
_symmetry_cell_setting            triclinic 
loop_ 
_symmetry_equiv_pos_as_xyz 
  x,y,z 
_cell_length_a                    57.56051195 
_cell_length_b                    68.73086626584416 
_cell_length_c                    47.2806560792164 
_cell_angle_alpha                 89.99915770597296 
_cell_angle_beta                  89.98005915160554 
_cell_angle_gamma                 90.1423201768867 
loop_ 
_atom_site_label 
_atom_site_type_symbol 
_atom_site_fract_x 
_atom_site_fract_y 
_atom_site_fract_z 
_atom_site_charge 
Zr1        Zr  0.34761961  0.52208735  0.62739360     2.17500
O2          O  0.36649468  0.54381534  0.66119431    -0.51400
O3          O  0.32356743  0.51470819  0.66905964    -0.74600
O4          O  0.33133178  0.55477274  0.62705312    -0.81400
O5          O  0.39738092  0.48597022  0.63382607    -0.83200
O6          O  0.31123134  0.56021729  0.58647064    -0.78800
O7          O  0.38545842  0.51572695  0.64878774    -0.90400
O8          O  0.29495660  0.49381849  0.65589806    -0.76400
O9          O  0.31007502  0.51775969  0.60734470    -0.85900
O10         O  0.34032627  0.48792233  0.62899103    -0.85600
O11         O  0.35028953  0.53515664  0.58005395    -0.72300
O12         O  0.37721958  0.50761900  0.59861982    -0.84500
Zr13       Zr  0.33389937  0.48094711  0.53230390     2.26400
Zr14       Zr  0.31254113  0.52993361  0.55996307     2.06300
Zr15       Zr  0.36952400  0.47354880  0.59976310     2.10000
Zr16       Zr  0.30300371  0.48359240  0.60805126     1.78800
O17         O  0.40688616  0.45722061  0.60469053    -0.93300
O18         O  0.26280105  0.49469106  0.60857320    -0.41100
O19         O  0.33200502  0.46785173  0.57957986    -0.77700
O20         O  0.30416064  0.49578344  0.56073811    -0.96400
O21         O  0.34164827  0.51504582  0.53127992    -0.89700
O22         O  0.37158914  0.48565094  0.55231041    -0.92500
C23         C  0.30512522  0.50466173  0.67410866     1.01200
C24         C  0.39997878  0.50156279  0.64838436     1.14100
C25         C  0.31938513  0.56560939  0.61048461     1.04900
O26         O  0.27117420  0.53429680  0.56846747    -0.94700
O27         O  0.29276999  0.52288108  0.51588488    -0.90400
O28         O  0.30264338  0.49235330  0.50149575    -0.83600
C29         C  0.29064198  0.50805584  0.49957944     1.11600
O30         O  0.40574128  0.54493174  0.56697448    -0.96700
Zr31       Zr  0.37908400  0.51950383  0.55129680     1.88900
O32         O  0.35571344  0.48926754  0.48976460    -0.73300
O33         O  0.31611297  0.55721350  0.52727377    -0.52600
O34         O  0.37789908  0.54932443  0.52352171    -0.97300
O35         O  0.41900632  0.50791147  0.55521524    -0.54500
O36         O  0.38610581  0.50841105  0.50316156    -0.73800
C37         C  0.37461064  0.49862909  0.48470407     0.98500
O38         O  0.30972821  0.45438523  0.51434066    -0.62700
O39         O  0.35724822  0.44903452  0.63392683    -0.57500
O40         O  0.35494130  0.45012117  0.52711280    -0.94100
O41         O  0.37762945  0.44773868  0.56637877    -0.92600
O42         O  0.30392308  0.45377540  0.63583403    -0.92900
O43         O  0.27638093  0.45904642  0.58965102    -0.91700
C44         C  0.37052208  0.44166910  0.54225666     1.17400
H45         H  0.34104728  0.48289712  0.64807741     0.33300
H46         H  0.28900013  0.49343411  0.55265496     0.44100
H47         H  0.38350722  0.47922734  0.54142076     0.37700
H48         H  0.35409925  0.54881367  0.58050634     0.34200
H49         H  0.25535879  0.48733259  0.62415584     0.25900
H50         H  0.30285079  0.56584495  0.53170832     0.31900
H51         H  0.36860818  0.54598667  0.50658099     0.37800
H52         H  0.28902014  0.45365532  0.64630481     0.32200
H53         H  0.36163367  0.43645145  0.62527886     0.31100
H54         H  0.40327690  0.44391814  0.61146868     0.32800
H55         H  0.42109635  0.49878268  0.53922949     0.31800
H56         H  0.27665849  0.46081173  0.56887442     0.35800
H57         H  0.31094080  0.44401336  0.52879797     0.28500
H58         H  0.35419674  0.54765047  0.67472456     0.32700
H59         H  0.41761142  0.54606792  0.55188868     0.35600
H60         H  0.36812451  0.45063759  0.64999737     0.28200
H61         H  0.29344765  0.45883891  0.51613266     0.41100
H62         H  0.26830083  0.54824006  0.56461240     0.31100
H63         H  0.26356649  0.50824919  0.61560466     0.38700
H64         H  0.41905576  0.49951268  0.57223878     0.30600
H65         H  0.33000951  0.56448333  0.53370620     0.30700
H66         H  0.37039710  0.55585122  0.65067628     0.30900
Zr67       Zr  0.35106641  0.73845927  0.65598661     2.17500
O68         O  0.37031990  0.71719827  0.62192538    -0.51400
O69         O  0.32741514  0.74649861  0.61434164    -0.74600
O70         O  0.33475895  0.70556884  0.65456259    -0.81400
O71         O  0.39962851  0.77603553  0.64806500    -0.83200
O72         O  0.31286808  0.70032330  0.69383912    -0.78800
O73         O  0.38874972  0.74554875  0.63486596    -0.90400
O74         O  0.30033863  0.76883440  0.62694815    -0.76400
O75         O  0.31307834  0.74396927  0.67404388    -0.85900
O76         O  0.34583430  0.77289857  0.65584574    -0.85600
O77         O  0.35185928  0.72454583  0.70287147    -0.72300
O78         O  0.38058954  0.75134488  0.68672731    -0.84500
Zr79       Zr  0.33636222  0.77834850  0.75196391     2.26400
Zr80       Zr  0.31362779  0.73057000  0.72076191     2.06300
Zr81       Zr  0.37488857  0.78566097  0.68695852     2.10000
Zr82       Zr  0.30813552  0.77843011  0.67494252     1.78800
O83         O  0.41592327  0.79377886  0.69182829    -0.93300
O84         O  0.26683822  0.77047451  0.67416999    -0.41100
O85         O  0.33699230  0.79231201  0.70535234    -0.77700
O86         O  0.30676343  0.76509038  0.72145278    -0.96400
O87         O  0.34231540  0.74400210  0.75189355    -0.89700
O88         O  0.37452207  0.77287448  0.73403866    -0.92500
C89         C  0.30976262  0.75735874  0.60905717     1.01200
C90         C  0.40242278  0.76032302  0.63392017     1.14100
C91         C  0.32194154  0.69479725  0.67036108     1.04900
O92         O  0.27310088  0.72464321  0.70856179    -0.94700
O93         O  0.29150653  0.73770642  0.76283214    -0.90400
O94         O  0.30244374  0.76754457  0.77914439    -0.83600
C95         C  0.28959538  0.75220728  0.77969389     1.11600
O96         O  0.40716200  0.71419552  0.71638634    -0.96700
Zr97       Zr  0.38028535  0.73878400  0.73389582     1.88900
O98         O  0.35730721  0.76987202  0.79497856    -0.73300
O99         O  0.31602546  0.70386002  0.75446283    -0.52600
O100        O  0.37631447  0.70831751  0.75981512    -0.97300
O101        O  0.42100632  0.74867464  0.73360421    -0.54500
O102        O  0.38618426  0.74890717  0.78297560    -0.73800
C103        C  0.37524912  0.75959680  0.80085895     0.98500
O104        O  0.31714843  0.80523330  0.77609263    -0.62700
O105        O  0.36810357  0.81296086  0.65519058    -0.57500
O106        O  0.35532497  0.81039306  0.75498090    -0.94100
O107        O  0.38144986  0.81253445  0.71892087    -0.92600
O108        O  0.31233270  0.80849929  0.64817716    -0.92900
O109        O  0.28361287  0.80466144  0.69239353    -0.91700
C110        C  0.37175623  0.81905385  0.74135706     1.17400
H111        H  0.34748685  0.77831271  0.63707645     0.33300
H112        H  0.29139513  0.76784131  0.72850417     0.44100
H113        H  0.38614695  0.77914461  0.74565351     0.37700
H114        H  0.35515404  0.71080637  0.70216623     0.34200
H115        H  0.26083913  0.77659933  0.65668594     0.25900
H116        H  0.30138155  0.69648017  0.75190371     0.31900
H117        H  0.38575496  0.71008164  0.77712658     0.37800
H118        H  0.29851907  0.80892254  0.63571438     0.32200
H119        H  0.36337503  0.82381329  0.66767609     0.31100
H120        H  0.41754449  0.80696996  0.68363003     0.32800
H121        H  0.42341313  0.75581858  0.75154078     0.31800
H122        H  0.28382635  0.80321982  0.71322772     0.35800
H123        H  0.30069120  0.80466351  0.77005280     0.28500
H124        H  0.35794463  0.71229901  0.60922110     0.32700
H125        H  0.41727013  0.71084785  0.73260804     0.35600
H126        H  0.38375782  0.81668285  0.64835216     0.28200
H127        H  0.31699342  0.80163444  0.79637525     0.41100
H128        H  0.26733887  0.71562194  0.72332429     0.31100
H129        H  0.26621397  0.75632957  0.67028324     0.38700
H130        H  0.42200490  0.75879272  0.71875304     0.30600
H131        H  0.32827080  0.69519702  0.74693249     0.30700
H132        H  0.37554691  0.70569038  0.63279063     0.30900
Zr133      Zr  0.45234288  0.52081773  0.15359843     2.17500
O134        O  0.42997718  0.54373199  0.12510385    -0.51400
O135        O  0.47498229  0.51322816  0.11121633    -0.74600
O136        O  0.47025448  0.55294351  0.14958702    -0.81400
O137        O  0.40400294  0.48300978  0.14562446    -0.83200
O138        O  0.49147293  0.55869004  0.18922322    -0.78800
O139        O  0.41599091  0.51279167  0.13055981    -0.90400
O140        O  0.50202795  0.49071607  0.12323190    -0.76400
O141        O  0.49062305  0.51504345  0.17047985    -0.85900
O142        O  0.45710803  0.48630219  0.15310198    -0.85600
O143        O  0.45270171  0.53510310  0.20008624    -0.72300
O144        O  0.42318097  0.50826562  0.18521681    -0.84500
Zr145      Zr  0.46857379  0.48162881  0.24925416     2.26400
Zr146      Zr  0.49120896  0.52886662  0.21696613     2.06300
Zr147      Zr  0.42867963  0.47382367  0.18517405     2.10000
Zr148      Zr  0.49502052  0.48051002  0.17114943     1.78800
O149        O  0.38775082  0.46486914  0.18772289    -0.93300
O150        O  0.53652510  0.48741758  0.16894397    -0.41100
O151        O  0.46679572  0.46708891  0.20288813    -0.77700
O152        O  0.49752727  0.49430173  0.21737295    -0.96400
O153        O  0.46310992  0.51594977  0.24929530    -0.89700
O154        O  0.43010525  0.48711861  0.23207541    -0.92500
C155        C  0.49249317  0.50232291  0.10561119     1.01200
C156        C  0.40194154  0.49829790  0.13025246     1.14100
C157        C  0.48278992  0.56390468  0.16542730     1.04900
O158        O  0.53176784  0.53456801  0.20488002    -0.94700
O159        O  0.51421552  0.52185860  0.25847571    -0.90400
O160        O  0.50341783  0.49201179  0.27489945    -0.83600
C161        C  0.51653590  0.50722115  0.27501327     1.11600
O162        O  0.39920437  0.54776004  0.21814318    -0.96700
Zr163      Zr  0.42492279  0.52132156  0.23217728     1.88900
O164        O  0.44840993  0.49073268  0.29275222    -0.73300
O165        O  0.49001887  0.55648693  0.24928630    -0.52600
O166        O  0.43347352  0.55063875  0.25927138    -0.97300
O167        O  0.38356088  0.51369310  0.23462662    -0.54500
O168        O  0.41879166  0.51091950  0.28075901    -0.73800
C169        C  0.43014618  0.50063370  0.29865511     0.98500
O170        O  0.49148422  0.45707498  0.27386420    -0.62700
O171        O  0.43628922  0.44524833  0.15604517    -0.57500
O172        O  0.44866482  0.45020033  0.25414862    -0.94100
O173        O  0.42237315  0.44761393  0.21837119    -0.92600
O174        O  0.49064327  0.45117663  0.14268072    -0.92900
O175        O  0.51765629  0.45278360  0.18747875    -0.91700
C176        C  0.43214112  0.44143135  0.24098282     1.17400
H177        H  0.45504571  0.48091130  0.13438227     0.33300
H178        H  0.51300069  0.49142251  0.22394617     0.44100
H179        H  0.41864007  0.48102231  0.24410511     0.37700
H180        H  0.44957218  0.54885120  0.19909271     0.34200
H181        H  0.54213930  0.47997315  0.15236973     0.25900
H182        H  0.50511437  0.56317968  0.24658005     0.31900
H183        H  0.44026656  0.54596373  0.27726081     0.37800
H184        H  0.50384611  0.45149599  0.12924542     0.32200
H185        H  0.44267287  0.43545868  0.16927978     0.31100
H186        H  0.38673988  0.45188198  0.17872008     0.32800
H187        H  0.38251832  0.50161341  0.24596371     0.31800
H188        H  0.52179975  0.45595446  0.20727087     0.35800
H189        H  0.48205264  0.45311688  0.29042946     0.28500
H190        H  0.44032548  0.54770147  0.10937893     0.32700
H191        H  0.39178104  0.55229222  0.23585365     0.35600
H192        H  0.42072433  0.44016382  0.15098881     0.28200
H193        H  0.49175790  0.44554565  0.26130274     0.41100
H194        H  0.53929032  0.52171713  0.20704538     0.31100
H195        H  0.53752416  0.50118792  0.16291450     0.38700
H196        H  0.37938804  0.50958380  0.21520246     0.30600
H197        H  0.47838085  0.56551034  0.24124184     0.30700
H198        H  0.42800331  0.55554701  0.13684812     0.30900
Zr199      Zr  0.45482715  0.73945995  0.13131034     2.17500
O200        O  0.43583003  0.71864453  0.16622367    -0.51400
O201        O  0.47890547  0.74724376  0.17291838    -0.74600
O202        O  0.47000778  0.70608344  0.13132521    -0.81400
O203        O  0.40623085  0.77693579  0.13657361    -0.83200
O204        O  0.49040653  0.70020404  0.09105709    -0.78800
O205        O  0.41753373  0.74741145  0.15315040    -0.90400
O206        O  0.50709377  0.76863766  0.16005016    -0.76400
O207        O  0.49268285  0.74353459  0.11203629    -0.85900
O208        O  0.46242565  0.77362895  0.13174135    -0.85600
O209        O  0.45240276  0.72587886  0.08420095    -0.72300
O210        O  0.42568516  0.75391020  0.10149898    -0.84500
Zr211      Zr  0.47055363  0.77925634  0.03516265     2.26400
Zr212      Zr  0.49061127  0.73056633  0.06508292     2.06300
Zr213      Zr  0.43400308  0.78790381  0.10139908     2.10000
Zr214      Zr  0.50007980  0.77768986  0.11160684     1.78800
O215        O  0.39715625  0.80499541  0.10605420    -0.93300
O216        O  0.54068992  0.76786628  0.11474840    -0.41100
O217        O  0.47180782  0.79312879  0.08191689    -0.77700
O218        O  0.49963908  0.76464833  0.06492879    -0.96400
O219        O  0.46218962  0.74525711  0.03509804    -0.89700
O220        O  0.43240593  0.77528910  0.05420992    -0.92500
C221        C  0.49699128  0.75770399  0.17818302     1.01200
C222        C  0.40342283  0.76185774  0.15219768     1.14100
C223        C  0.48189050  0.69496903  0.11491250     1.04900
O224        O  0.53079504  0.72360276  0.07759805    -0.94700
O225        O  0.51326997  0.73704974  0.02298720    -0.90400
O226        O  0.50375788  0.76741556  0.00755997    -0.83600
C227        C  0.51598275  0.75175861  0.00661986     1.11600
O228        O  0.39645227  0.71795249  0.07289332    -0.96700
Zr229      Zr  0.42427998  0.74153490  0.05435640     1.88900
O230        O  0.44861439  0.77105025  0.99268636    -0.73300
O231        O  0.48546209  0.70412988  0.03130729    -0.52600
O232        O  0.42406445  0.71201172  0.02578824    -0.97300
O233        O  0.38437495  0.75331107  0.05673399    -0.54500
O234        O  0.41785100  0.75230806  0.00593135    -0.73800
C235        C  0.42953999  0.76198575  0.98753759     0.98500
O236        O  0.49212323  0.80549540  0.01224016    -0.62700
O237        O  0.44855288  0.81303411  0.13306212    -0.57500
O238        O  0.45187458  0.81127391  0.03109890    -0.94100
O239        O  0.42624592  0.81350479  0.06764433    -0.92600
O240        O  0.49905040  0.80828769  0.13745490    -0.92900
O241        O  0.52713138  0.80084278  0.09054969    -0.91700
C242        C  0.43539022  0.81981112  0.04469473     1.17400
H243        H  0.46140582  0.77892370  0.15065599     0.33300
H244        H  0.51509499  0.76684121  0.05766964     0.44100
H245        H  0.42091890  0.78184136  0.04279844     0.37700
H246        H  0.44828844  0.71226797  0.08480592     0.34200
H247        H  0.54766202  0.77678117  0.12887079     0.25900
H248        H  0.49910818  0.69560077  0.03409321     0.31900
H249        H  0.43476377  0.71479183  0.00988230     0.37800
H250        H  0.51366472  0.80846291  0.14849551     0.32200
H251        H  0.44280870  0.82537598  0.12488914     0.31100
H252        H  0.39982976  0.81496340  0.12083153     0.32800
H253        H  0.37910856  0.75415544  0.03684813     0.31800
H254        H  0.51823550  0.80704557  0.07507922     0.35800
H255        H  0.50815125  0.80456533  0.01972211     0.28500
H256        H  0.44838851  0.71396603  0.17879646     0.32700
H257        H  0.38590156  0.71484812  0.05697122     0.35600
H258        H  0.43944172  0.81132131  0.15065924     0.28200
H259        H  0.49335273  0.80181324  0.99204497     0.41100
H260        H  0.53094485  0.72297745  0.09852457     0.31100
H261        H  0.54040093  0.75505079  0.12430062     0.38700
H262        H  0.38558634  0.76699346  0.06312047     0.30600
H263        H  0.47213515  0.69649915  0.03861062     0.30700
H264        H  0.43047518  0.70696781  0.15580197     0.30900
Zr265      Zr  0.08243650  0.52989551  0.28409954     2.17500
O266        O  0.05837234  0.55431076  0.26089272    -0.51400
O267        O  0.10245516  0.52304489  0.24006328    -0.74600
O268        O  0.10205024  0.56180927  0.28087369    -0.81400
O269        O  0.03815116  0.48936568  0.27351545    -0.83200
O270        O  0.13170602  0.56158156  0.31263666    -0.78800
O271        O  0.04650038  0.52048124  0.26038400    -0.90400
O272        O  0.13272247  0.50299959  0.25000541    -0.76400
O273        O  0.12130382  0.52361860  0.29871070    -0.85900
O274        O  0.08763940  0.49538248  0.28193179    -0.85600
O275        O  0.08545081  0.54321609  0.33089347    -0.72300
O276        O  0.05441406  0.51582492  0.31580654    -0.84500
Zr277      Zr  0.10189005  0.48853577  0.37697277     2.26400
Zr278      Zr  0.12411375  0.53575213  0.34599752     2.06300
Zr279      Zr  0.06089767  0.48133234  0.31489901     2.10000
Zr280      Zr  0.12624632  0.48938416  0.29673214     1.78800
O281        O  0.02108388  0.47681048  0.33106914    -0.93300
O282        O  0.16789937  0.49545075  0.29394534    -0.41100
O283        O  0.09972592  0.47507941  0.32992294    -0.77700
O284        O  0.13000036  0.50136614  0.34408653    -0.96400
O285        O  0.09656990  0.52280202  0.37870786    -0.89700
O286        O  0.06304790  0.49426526  0.36168695    -0.92500
C287        C  0.12101594  0.51389235  0.23326757     1.01200
C288        C  0.03447564  0.50473809  0.25886381     1.14100
C289        C  0.12043012  0.56923518  0.29213568     1.04900
O290        O  0.16501319  0.54422985  0.34179891    -0.94700
O291        O  0.14875712  0.52729322  0.38579302    -0.90400
O292        O  0.13620705  0.49836242  0.40362816    -0.83600
C293        C  0.15046638  0.51277302  0.40270506     1.11600
O294        O  0.03437809  0.55605201  0.34685284    -0.96700
Zr295      Zr  0.05805140  0.52872534  0.36254045     1.88900
O296        O  0.07971681  0.49491559  0.42031341    -0.73300
O297        O  0.11615378  0.56424251  0.37495209    -0.52600
O298        O  0.06503068  0.55743517  0.39158749    -0.97300
O299        O  0.01665627  0.52199477  0.36808930    -0.54500
O300        O  0.05310049  0.51838594  0.41060975    -0.73800
C301        C  0.06279531  0.50619458  0.42719154     0.98500
O302        O  0.12817434  0.46483173  0.39813640    -0.62700
O303        O  0.05650535  0.45256814  0.28510928    -0.57500
O304        O  0.08365352  0.45675346  0.38152828    -0.94100
O305        O  0.06517158  0.45051445  0.34002039    -0.92600
O306        O  0.11736726  0.46272259  0.26451884    -0.92900
O307        O  0.14926022  0.46067297  0.30775808    -0.91700
C308        C  0.07261033  0.44549053  0.36455905     1.17400
H309        H  0.08489106  0.49047630  0.26306262     0.33300
H310        H  0.14555332  0.49816542  0.35017259     0.44100
H311        H  0.05198317  0.48778368  0.37387176     0.37700
H312        H  0.08308546  0.55717144  0.33060902     0.34200
H313        H  0.17298947  0.48860485  0.27659289     0.25900
H314        H  0.11848166  0.55976904  0.39465194     0.31900
H315        H  0.07403567  0.55273585  0.40805566     0.37800
H316        H  0.10686929  0.45408345  0.27540027     0.32200
H317        H  0.03953905  0.45018899  0.28425317     0.31100
H318        H  0.02208784  0.46686524  0.34616424     0.32800
H319        H  0.01580889  0.50898691  0.37702742     0.31800
H320        H  0.15201069  0.46149772  0.32839629     0.35800
H321        H  0.11942246  0.45858884  0.41373096     0.28500
H322        H  0.06803114  0.55975776  0.24545662     0.32700
H323        H  0.02491504  0.55982469  0.36345969     0.35600
H324        H  0.06079503  0.45678359  0.26577438     0.28200
H325        H  0.13009759  0.45453704  0.38367413     0.41100
H326        H  0.17122499  0.53484387  0.32785257     0.31100
H327        H  0.16921349  0.50942749  0.28912085     0.38700
H328        H  0.01086166  0.51989785  0.34861079     0.30600
H329        H  0.12940287  0.57310255  0.37129957     0.30700
H330        H  0.05676129  0.56500268  0.27479033     0.30900
Zr331      Zr  0.08725329  0.23188425  0.50030943     2.17500
O332        O  0.06572208  0.20850102  0.52906316    -0.51400
O333        O  0.10820605  0.23988807  0.54349120    -0.74600
O334        O  0.10585890  0.19988679  0.50272630    -0.81400
O335        O  0.04076004  0.27134202  0.50862980    -0.83200
O336        O  0.13558489  0.20014606  0.47110904    -0.78800
O337        O  0.05024999  0.24063724  0.52239401    -0.90400
O338        O  0.13913060  0.25864036  0.53122470    -0.76400
O339        O  0.12573703  0.23732558  0.48325109    -0.85900
O340        O  0.09355092  0.26620008  0.50160948    -0.85600
O341        O  0.08812499  0.21799036  0.45350830    -0.72300
O342        O  0.05870943  0.24569032  0.46956570    -0.84500
Zr343      Zr  0.10447458  0.27208196  0.40567070     2.26400
Zr344      Zr  0.12646608  0.22459335  0.43614223     2.06300
Zr345      Zr  0.06577712  0.28002357  0.46987944     2.10000
Zr346      Zr  0.13174876  0.27147177  0.48421425     1.78800
O347        O  0.02562144  0.28704074  0.45730778    -0.93300
O348        O  0.17328260  0.26494073  0.48720676    -0.41100
O349        O  0.10411859  0.28576470  0.45248685    -0.77700
O350        O  0.13347148  0.25887767  0.43707439    -0.96400
O351        O  0.09816442  0.23782414  0.40475860    -0.89700
O352        O  0.06612136  0.26698195  0.42297594    -0.92500
C353        C  0.12740710  0.24856974  0.54905984     1.01200
C354        C  0.03744856  0.25595229  0.52329777     1.14100
C355        C  0.12424580  0.19256480  0.49164542     1.04900
O356        O  0.16688443  0.21428089  0.43646019    -0.94700
O357        O  0.14966535  0.23247321  0.39458834    -0.90400
O358        O  0.13832231  0.26207940  0.37815285    -0.83600
C359        C  0.15171255  0.24713764  0.37791967     1.11600
O360        O  0.03651696  0.20541911  0.43959494    -0.96700
Zr361      Zr  0.05999124  0.23267146  0.42278486     1.88900
O362        O  0.08098367  0.26552787  0.36337255    -0.73300
O363        O  0.11586568  0.19572797  0.40912914    -0.52600
O364        O  0.06266206  0.20420124  0.39223401    -0.97300
O365        O  0.01900186  0.24160063  0.42417667    -0.54500
O366        O  0.05313214  0.24333978  0.37480054    -0.73800
C367        C  0.06316689  0.25491874  0.35740520     0.98500
O368        O  0.12885682  0.29570302  0.38105616    -0.62700
O369        O  0.06994112  0.30654591  0.50385007    -0.57500
O370        O  0.08748148  0.30465004  0.40426236    -0.94100
O371        O  0.06634360  0.31043083  0.44402645    -0.92600
O372        O  0.12540931  0.30040772  0.51297740    -0.92900
O373        O  0.15712670  0.29771589  0.46841750    -0.91700
C374        C  0.07515758  0.31565510  0.42030998     1.17400
H375        H  0.09163463  0.27131645  0.52045521     0.33300
H376        H  0.14892875  0.26172846  0.43022560     0.44100
H377        H  0.05480331  0.27360073  0.41138672     0.37700
H378        H  0.08535478  0.20407777  0.45427917     0.34200
H379        H  0.17789425  0.26895407  0.50653078     0.25900
H380        H  0.12622000  0.19601441  0.39240686     0.31900
H381        H  0.07430877  0.20771472  0.37767281     0.37800
H382        H  0.13057866  0.29677683  0.53223080     0.32200
H383        H  0.05551733  0.31424336  0.50189048     0.31100
H384        H  0.02067144  0.29720852  0.47084766     0.32800
H385        H  0.01776558  0.25337105  0.41221465     0.31800
H386        H  0.15428196  0.29867115  0.44780726     0.35800
H387        H  0.11900674  0.30129930  0.36595767     0.28500
H388        H  0.07674705  0.20393666  0.54369340     0.32700
H389        H  0.02392514  0.20380083  0.42551897     0.35600
H390        H  0.06866403  0.30048036  0.52277828     0.28200
H391        H  0.13138783  0.30644697  0.39468334     0.41100
H392        H  0.17501293  0.22438334  0.44766537     0.31100
H393        H  0.17444586  0.25057350  0.48736876     0.38700
H394        H  0.01636055  0.24636201  0.44367879     0.30600
H395        H  0.12157034  0.18465960  0.42056214     0.30700
H396        H  0.06294973  0.19709494  0.51670704     0.30900
Zr397      Zr  0.21830721  0.53138903  0.99929758     2.17500
O398        O  0.24273277  0.55523538  0.02336990    -0.51400
O399        O  0.19716346  0.52495563  0.04272002    -0.74600
O400        O  0.19943109  0.56338648  0.00305262    -0.81400
O401        O  0.26225853  0.49063939  0.00851940    -0.83200
O402        O  0.17118650  0.56399439  0.96953652    -0.78800
O403        O  0.25367108  0.52126791  0.02365962    -0.90400
O404        O  0.16596138  0.50618184  0.03139475    -0.76400
O405        O  0.17973207  0.52747634  0.98190513    -0.85900
O406        O  0.21011042  0.49722710  0.00097091    -0.85600
O407        O  0.21872417  0.54493139  0.95237223    -0.72300
O408        O  0.24619990  0.51570087  0.96932974    -0.84500
Zr409      Zr  0.20009914  0.49118011  0.90493199     2.26400
Zr410      Zr  0.18036274  0.53957895  0.93442963     2.06300
Zr411      Zr  0.23708840  0.48170647  0.96965070     2.10000
Zr412      Zr  0.17171957  0.49365929  0.98355144     1.78800
O413        O  0.27624456  0.47295929  0.95490293    -0.93300
O414        O  0.13151194  0.50467138  0.98399867    -0.41100
O415        O  0.19843998  0.47766594  0.95201701    -0.77700
O416        O  0.17143437  0.50548980  0.93596084    -0.96400
O417        O  0.20833939  0.52515450  0.90357394    -0.89700
O418        O  0.23838909  0.49470811  0.92284615    -0.92500
C419        C  0.17798561  0.51640771  0.04881697     1.01200
C420        C  0.26595921  0.50567107  0.02397310     1.14100
C421        C  0.18155146  0.57107180  0.99119359     1.04900
O422        O  0.14300112  0.55595167  0.93089293    -0.94700
O423        O  0.15489009  0.53096039  0.89541203    -0.90400
O424        O  0.16684596  0.50189135  0.87776355    -0.83600
C425        C  0.15297553  0.51644516  0.87853693     1.11600
O426        O  0.27233577  0.55291977  0.94364864    -0.96700
Zr427      Zr  0.24643727  0.52878323  0.92267747     1.88900
O428        O  0.22491815  0.49659741  0.86327271    -0.73300
O429        O  0.19434681  0.56653384  0.90570184    -0.52600
O430        O  0.24565236  0.55860394  0.89485204    -0.97300
O431        O  0.28682757  0.51818549  0.92019962    -0.54500
O432        O  0.25287908  0.51862034  0.87460310    -0.73800
C433        C  0.24295262  0.50693340  0.85732526     0.98500
O434        O  0.17636892  0.46983730  0.87533934    -0.62700
O435        O  0.23543771  0.45498395  0.00351806    -0.57500
O436        O  0.21404995  0.45777466  0.90325053    -0.94100
O437        O  0.23352488  0.45109895  0.94386248    -0.92600
O438        O  0.17509841  0.46406073  0.01159806    -0.92900
O439        O  0.14249554  0.46955725  0.97058233    -0.91700
C440        C  0.22510218  0.44621506  0.91971937     1.17400
H441        H  0.21159174  0.49213169  0.01989153     0.33300
H442        H  0.15587926  0.50288247  0.92933031     0.44100
H443        H  0.24933848  0.48755689  0.91140145     0.37700
H444        H  0.22217439  0.55872578  0.95310596     0.34200
H445        H  0.12508126  0.49992640  0.00217064     0.25900
H446        H  0.18375753  0.56676030  0.88920379     0.31900
H447        H  0.23535933  0.55566138  0.87862709     0.37800
H448        H  0.18047677  0.45402009  0.99808865     0.32200
H449        H  0.25158759  0.45010515  0.00460965     0.31100
H450        H  0.28119056  0.46281740  0.96847994     0.32800
H451        H  0.29359783  0.52553927  0.90416848     0.31800
H452        H  0.14907041  0.46290579  0.95382920     0.35800
H453        H  0.18701113  0.46443429  0.86088140     0.28500
H454        H  0.23295495  0.56088650  0.03850717     0.32700
H455        H  0.28263204  0.55735697  0.92814977     0.35600
H456        H  0.23268863  0.46116790  0.02212161     0.28200
H457        H  0.17190425  0.45864823  0.88738402     0.41100
H458        H  0.13240146  0.54819920  0.94297889     0.31100
H459        H  0.13254324  0.51896143  0.98636023     0.38700
H460        H  0.28622561  0.50456542  0.91343194     0.30600
H461        H  0.19021603  0.57830089  0.91666532     0.30700
H462        H  0.24502852  0.56589268  0.00954646     0.30900
Zr463      Zr  0.22176999  0.23171580  0.78451303     2.17500
O464        O  0.24534369  0.20787033  0.75929781    -0.51400
O465        O  0.20107722  0.23889600  0.74087693    -0.74600
O466        O  0.20299822  0.19997029  0.78031659    -0.81400
O467        O  0.26860474  0.27104241  0.77801878    -0.83200
O468        O  0.17428276  0.19832923  0.81331260    -0.78800
O469        O  0.25736235  0.24163419  0.76045852    -0.90400
O470        O  0.17001352  0.25748120  0.75279329    -0.76400
O471        O  0.18298462  0.23620258  0.80074442    -0.85900
O472        O  0.21503679  0.26599845  0.78378189    -0.85600
O473        O  0.22024438  0.21751749  0.83109722    -0.72300
O474        O  0.24989656  0.24551963  0.81600145    -0.84500
Zr475      Zr  0.20337828  0.27085723  0.87940389     2.26400
Zr476      Zr  0.18156289  0.22352917  0.84787204     2.06300
Zr477      Zr  0.24252838  0.27980444  0.81613459     2.10000
Zr478      Zr  0.17635225  0.27013960  0.80029970     1.78800
O479        O  0.28143256  0.28789219  0.83274342    -0.93300
O480        O  0.13590538  0.25953271  0.80053722    -0.41100
O481        O  0.20369950  0.28470870  0.83253753    -0.77700
O482        O  0.17456985  0.25782069  0.84747566    -0.96400
O483        O  0.20962841  0.23660707  0.88004191    -0.89700
O484        O  0.24196885  0.26630283  0.86276984    -0.92500
C485        C  0.18191301  0.24748189  0.73506438     1.01200
C486        C  0.27097345  0.25647686  0.76130967     1.14100
C487        C  0.18532008  0.19176775  0.79183282     1.04900
O488        O  0.14093322  0.21402184  0.84347821    -0.94700
O489        O  0.15702851  0.23143026  0.88820007    -0.90400
O490        O  0.16927619  0.26053058  0.90571468    -0.83600
C491        C  0.15522374  0.24600920  0.90501747     1.11600
O492        O  0.27329043  0.20621486  0.84498000    -0.96700
Zr493      Zr  0.24804929  0.23199723  0.86254557     1.88900
O494        O  0.22646175  0.26448841  0.92206351    -0.73300
O495        O  0.18972909  0.19472659  0.87612380    -0.52600
O496        O  0.24501154  0.20204335  0.88998179    -0.97300
O497        O  0.28885445  0.24156199  0.86444304    -0.54500
O498        O  0.25381140  0.24192359  0.91112784    -0.73800
C499        C  0.24398293  0.25371049  0.92832748     0.98500
O500        O  0.17908012  0.29358624  0.90575557    -0.62700
O501        O  0.24313126  0.30556189  0.78073829    -0.57500
O502        O  0.21929861  0.30368937  0.88233985    -0.94100
O503        O  0.23758848  0.31062087  0.84097671    -0.92600
O504        O  0.17777442  0.29937980  0.77126240    -0.92900
O505        O  0.14969053  0.29597669  0.81381058    -0.91700
C506        C  0.22953593  0.31543597  0.86530093     1.17400
H507        H  0.21708285  0.27140667  0.76500240     0.33300
H508        H  0.15904964  0.26070845  0.85403095     0.44100
H509        H  0.25306839  0.27292986  0.87474746     0.37700
H510        H  0.22305716  0.20368770  0.83011235     0.34200
H511        H  0.12896110  0.26564978  0.78357707     0.25900
H512        H  0.18926833  0.19935014  0.89595110     0.31900
H513        H  0.23816123  0.20593483  0.90833032     0.37800
H514        H  0.16533819  0.29753243  0.75703143     0.32200
H515        H  0.22724603  0.31104672  0.78111904     0.31100
H516        H  0.28362153  0.30175174  0.82767413     0.32800
H517        H  0.28948958  0.25264130  0.87779994     0.31800
H518        H  0.15843711  0.30384737  0.82776469     0.35800
H519        H  0.18914082  0.29934095  0.92056194     0.28500
H520        H  0.23588611  0.20374484  0.74284883     0.32700
H521        H  0.28405408  0.20318068  0.86070285     0.35600
H522        H  0.25311386  0.31590972  0.78882655     0.28200
H523        H  0.17562744  0.30437456  0.89253130     0.41100
H524        H  0.13245683  0.22635690  0.84038906     0.31100
H525        H  0.13649830  0.24550553  0.79584504     0.38700
H526        H  0.29203923  0.24744559  0.84571979     0.30600
H527        H  0.17563933  0.18654712  0.87412890     0.30700
H528        H  0.24616585  0.19629174  0.77172216     0.30900
Zr529      Zr  0.35431615  0.23819204  0.15531821     2.17500
O530        O  0.37508406  0.21654425  0.12316052    -0.51400
O531        O  0.33122842  0.24661676  0.11324579    -0.74600
O532        O  0.33724503  0.20556170  0.15261820    -0.81400
O533        O  0.40345756  0.27538745  0.14898778    -0.83200
O534        O  0.31599865  0.20029755  0.19239664    -0.78800
O535        O  0.39124920  0.24589851  0.13296203    -0.90400
O536        O  0.30422680  0.26921263  0.12512597    -0.76400
O537        O  0.31619784  0.24406081  0.17262804    -0.85900
O538        O  0.34974752  0.27267770  0.15547462    -0.85600
O539        O  0.35445965  0.22411669  0.20218985    -0.72300
O540        O  0.38367303  0.25053914  0.18690156    -0.84500
Zr541      Zr  0.33860593  0.27777730  0.25122643     2.26400
Zr542      Zr  0.31593669  0.23044680  0.21929874     2.06300
Zr543      Zr  0.37845881  0.28492663  0.18749023     2.10000
Zr544      Zr  0.31180376  0.27859450  0.17345126     1.78800
O545        O  0.41954903  0.29205080  0.19438700    -0.93300
O546        O  0.27037326  0.27121127  0.17246216    -0.41100
O547        O  0.34034942  0.29194512  0.20482012    -0.77700
O548        O  0.30944752  0.26498717  0.21985433    -0.96400
O549        O  0.34428248  0.24339226  0.25125132    -0.89700
O550        O  0.37704117  0.27203591  0.23432585    -0.92500
C551        C  0.31380779  0.25765602  0.10744758     1.01200
C552        C  0.40547254  0.26030016  0.13332814     1.14100
C553        C  0.32472551  0.19477265  0.16876206     1.04900
O554        O  0.27591211  0.22528039  0.20436870    -0.94700
O555        O  0.29342687  0.23752824  0.26145873    -0.90400
O556        O  0.30461564  0.26713149  0.27835830    -0.83600
C557        C  0.29139282  0.25200616  0.27839698     1.11600
O558        O  0.41032510  0.21328847  0.21911132    -0.96700
Zr559      Zr  0.38251884  0.23796003  0.23411299     1.88900
O560        O  0.35861269  0.26905417  0.29451369    -0.73300
O561        O  0.31520159  0.20286859  0.25169851    -0.52600
O562        O  0.37646948  0.20804789  0.26077696    -0.97300
O563        O  0.42366612  0.24661959  0.23539675    -0.54500
O564        O  0.38821058  0.24872023  0.28285705    -0.73800
C565        C  0.37677766  0.25913418  0.30056899     0.98500
O566        O  0.31736704  0.30482958  0.27232204    -0.62700
O567        O  0.37349542  0.31273641  0.15622875    -0.57500
O568        O  0.35944492  0.30873214  0.25667874    -0.94100
O569        O  0.38497530  0.31146752  0.22002196    -0.92600
O570        O  0.31747432  0.30856213  0.14676001    -0.92900
O571        O  0.28834455  0.30573629  0.19011658    -0.91700
C572        C  0.37589599  0.31743519  0.24317833     1.17400
H573        H  0.35184361  0.27815660  0.13681286     0.33300
H574        H  0.29404095  0.26785585  0.22674236     0.44100
H575        H  0.38859307  0.27813713  0.24622986     0.37700
H576        H  0.35765238  0.21036499  0.20136757     0.34200
H577        H  0.26415770  0.27899427  0.15656146     0.25900
H578        H  0.30125880  0.19527635  0.24624545     0.31900
H579        H  0.38644865  0.20939852  0.27772156     0.37800
H580        H  0.30737835  0.30729654  0.12991189     0.32200
H581        H  0.36242713  0.32129506  0.16628549     0.31100
H582        H  0.42262247  0.30378952  0.18282418     0.32800
H583        H  0.42653333  0.25186449  0.25457716     0.31800
H584        H  0.29359466  0.30795535  0.20979747     0.35800
H585        H  0.30116791  0.30350014  0.26551895     0.28500
H586        H  0.36335976  0.21164784  0.10956940     0.32700
H587        H  0.41827624  0.20891616  0.23656142     0.35600
H588        H  0.38850391  0.31977674  0.15715182     0.28200
H589        H  0.31663852  0.30199449  0.29284202     0.41100
H590        H  0.26681320  0.23524172  0.21462906     0.31100
H591        H  0.26944100  0.25758369  0.16576193     0.38700
H592        H  0.42510789  0.25802414  0.22274370     0.30600
H593        H  0.32850478  0.19463531  0.24602801     0.30700
H594        H  0.37957937  0.20508822  0.13460669     0.30900
Zr595      Zr  0.35054441  0.02178685  0.12998213     2.17500
O596        O  0.37305648  0.04535701  0.15734196    -0.51400
O597        O  0.32741248  0.01451385  0.17229928    -0.74600
O598        O  0.33245330  0.05369297  0.13251167    -0.81400
O599        O  0.39998711  0.98585609  0.13643886    -0.83200
O600        O  0.31191959  0.05885325  0.09217428    -0.78800
O601        O  0.38654038  0.01432218  0.15453087    -0.90400
O602        O  0.30019962  0.99184793  0.16091397    -0.76400
O603        O  0.31225606  0.01561990  0.11309348    -0.85900
O604        O  0.34569545  0.98735649  0.13125797    -0.85600
O605        O  0.35019146  0.03534542  0.08291210    -0.72300
O606        O  0.37972566  0.00917681  0.09853765    -0.84500
Zr607      Zr  0.33458253  0.98077176  0.03534876     2.26400
Zr608      Zr  0.31179439  0.02850178  0.06611902     2.06300
Zr609      Zr  0.37410280  0.97474295  0.09939723     2.10000
Zr610      Zr  0.30775078  0.98109170  0.11330875     1.78800
O611        O  0.41398836  0.96306552  0.09818744    -0.93300
O612        O  0.26601200  0.98655222  0.11709558    -0.41100
O613        O  0.33608917  0.96718246  0.08217594    -0.77700
O614        O  0.30538986  0.99397491  0.06639868    -0.96400
O615        O  0.33986925  0.01516796  0.03446889    -0.89700
O616        O  0.37290983  0.98725004  0.05218209    -0.92500
C617        C  0.30976378  0.00370708  0.17819074     1.01200
C618        C  0.40145015  0.00050800  0.15309933     1.14100
C619        C  0.32039435  0.06439727  0.11590945     1.04900
O620        O  0.27114994  0.03211821  0.07928714    -0.94700
O621        O  0.29112653  0.02172177  0.02296109    -0.90400
O622        O  0.30184253  0.99181101  0.00690206    -0.83600
C623        C  0.28934505  0.00726199  0.00605780     1.11600
O624        O  0.40262885  0.04923724  0.06272467    -0.96700
Zr625      Zr  0.37796076  0.02145175  0.05112927     1.88900
O626        O  0.35517981  0.98873676  0.99187862    -0.73300
O627        O  0.31106946  0.05600836  0.03354405    -0.52600
O628        O  0.37088695  0.04979742  0.02130263    -0.97300
O629        O  0.41923978  0.01367953  0.05219671    -0.54500
O630        O  0.38411864  0.00996855  0.00307740    -0.73800
C631        C  0.37318007  0.99893035  0.98566353     0.98500
O632        O  0.31077643  0.95473517  0.01497799    -0.62700
O633        O  0.36473672  0.94792841  0.13108544    -0.57500
O634        O  0.35586887  0.95004160  0.03028455    -0.94100
O635        O  0.38162385  0.94845178  0.06671856    -0.92600
O636        O  0.31395125  0.95168452  0.14101871    -0.92900
O637        O  0.28328476  0.95438427  0.09712189    -0.91700
C638        C  0.37254851  0.94186167  0.04390395     1.17400
H639        H  0.34783824  0.98233150  0.15017034     0.33300
H640        H  0.29001709  0.99104308  0.05935280     0.44100
H641        H  0.38457059  0.98116532  0.04046583     0.37700
H642        H  0.35333662  0.04913533  0.08339408     0.34200
H643        H  0.26089336  0.97820335  0.13301849     0.25900
H644        H  0.29716909  0.06362688  0.03890793     0.31900
H645        H  0.35939436  0.04543727  0.00705410     0.37800
H646        H  0.31897294  0.95624163  0.15991938     0.32200
H647        H  0.37325185  0.93664362  0.12327754     0.31100
H648        H  0.41415626  0.95167257  0.11101511     0.32800
H649        H  0.42303883  0.00929859  0.03280098     0.31800
H650        H  0.28898107  0.95145317  0.07783361     0.35800
H651        H  0.31456658  0.94276247  0.02562871     0.28500
H652        H  0.36252854  0.05018796  0.17233528     0.32700
H653        H  0.41247456  0.05142789  0.04582509     0.35600
H654        H  0.37297145  0.95107548  0.14889600     0.28200
H655        H  0.29462791  0.95756681  0.02088135     0.41100
H656        H  0.26439447  0.04035038  0.06421517     0.31100
H657        H  0.26449168  0.99999326  0.12438450     0.38700
H658        H  0.42027019  0.00175713  0.06387629     0.30600
H659        H  0.32443253  0.06428575  0.03902702     0.30700
H660        H  0.37565232  0.05660630  0.14462059     0.30900
Zr661      Zr  0.45639198  0.24193293  0.63058138     2.17500
O662        O  0.43944449  0.22215787  0.66829908    -0.51400
O663        O  0.47939679  0.25083117  0.67226220    -0.74600
O664        O  0.47083979  0.20848334  0.63163851    -0.81400
O665        O  0.40864922  0.27956518  0.63784702    -0.83200
O666        O  0.49336801  0.20297145  0.59302375    -0.78800
O667        O  0.41832802  0.24873152  0.65039298    -0.90400
O668        O  0.50687035  0.27291691  0.65974815    -0.76400
O669        O  0.49454498  0.24716920  0.61268469    -0.85900
O670        O  0.46205973  0.27633585  0.63025056    -0.85600
O671        O  0.45562908  0.22740969  0.58409404    -0.72300
O672        O  0.42696249  0.25478722  0.59962678    -0.84500
Zr673      Zr  0.47199237  0.28055182  0.53425075     2.26400
Zr674      Zr  0.49402051  0.23312432  0.56627002     2.06300
Zr675      Zr  0.43348590  0.28910638  0.59872028     2.10000
Zr676      Zr  0.49984945  0.28166521  0.61136312     1.78800
O677        O  0.39344605  0.30040754  0.59652648    -0.93300
O678        O  0.54102565  0.27402240  0.61596232    -0.41100
O679        O  0.47151422  0.29559121  0.58023879    -0.77700
O680        O  0.50119603  0.26754450  0.56532630    -0.96400
O681        O  0.46560960  0.24629352  0.53485909    -0.89700
O682        O  0.43370912  0.27546535  0.55218839    -0.92500
C683        C  0.49693095  0.26180360  0.67771778     1.01200
C684        C  0.40527933  0.26378632  0.65175511     1.14100
C685        C  0.48345665  0.19750047  0.61598180     1.04900
O686        O  0.53435584  0.22661826  0.57862370    -0.94700
O687        O  0.51575460  0.23967828  0.52346352    -0.90400
O688        O  0.50578134  0.26977288  0.50738184    -0.83600
C689        C  0.51813874  0.25423192  0.50673018     1.11600
O690        O  0.40184967  0.21617589  0.57132474    -0.96700
Zr691      Zr  0.42751910  0.24143953  0.55284599     1.88900
O692        O  0.45074434  0.27160123  0.49178209    -0.73300
O693        O  0.49151014  0.20584651  0.53352714    -0.52600
O694        O  0.43245054  0.21219522  0.52433095    -0.97300
O695        O  0.38653681  0.25024187  0.55185533    -0.54500
O696        O  0.42093494  0.25158274  0.50417602    -0.73800
C697        C  0.43232687  0.26179247  0.48616091     0.98500
O698        O  0.49570380  0.30426645  0.50883472    -0.62700
O699        O  0.44254759  0.31704267  0.62847571    -0.57500
O700        O  0.45198639  0.31176131  0.52833858    -0.94100
O701        O  0.42618629  0.31460398  0.56459938    -0.92600
O702        O  0.49436825  0.31218660  0.63678478    -0.92900
O703        O  0.52615335  0.30632947  0.59261715    -0.91700
C704        C  0.43548598  0.32050944  0.54152435     1.17400
H705        H  0.46022321  0.28182483  0.64894039     0.33300
H706        H  0.51661639  0.27013979  0.55822848     0.44100
H707        H  0.42212118  0.28150950  0.54035317     0.37700
H708        H  0.45187617  0.21375128  0.58481535     0.34200
H709        H  0.54632774  0.28131211  0.63285409     0.25900
H710        H  0.50550171  0.19793413  0.53742176     0.31900
H711        H  0.41870263  0.21182871  0.51175563     0.37800
H712        H  0.48760697  0.30852390  0.65530063     0.32200
H713        H  0.43247781  0.32759922  0.62128515     0.31100
H714        H  0.39280804  0.31167350  0.60956699     0.32800
H715        H  0.38449688  0.25814570  0.53454227     0.31800
H716        H  0.52214409  0.30727052  0.57229847     0.35800
H717        H  0.48643975  0.30798837  0.49204480     0.28500
H718        H  0.45265855  0.21665220  0.67904024     0.32700
H719        H  0.39258841  0.21161118  0.55496714     0.35600
H720        H  0.43591844  0.31373656  0.64720230     0.28200
H721        H  0.49606473  0.31603327  0.52090973     0.41100
H722        H  0.54336658  0.23722053  0.56959024     0.31100
H723        H  0.54140645  0.26019934  0.62184392     0.38700
H724        H  0.38474914  0.25965785  0.56755067     0.30600
H725        H  0.47836044  0.19784392  0.54045366     0.30700
H726        H  0.43205318  0.21087797  0.65882969     0.30900
Zr727      Zr  0.45265526  0.02364476  0.65619687     2.17500
O728        O  0.43327357  0.04529697  0.62272840    -0.51400
O729        O  0.47650667  0.01642931  0.61443964    -0.74600
O730        O  0.46846613  0.05660807  0.65539815    -0.81400
O731        O  0.40635322  0.98468055  0.64602564    -0.83200
O732        O  0.48893235  0.06216810  0.69567502    -0.78800
O733        O  0.41608624  0.01551157  0.63320488    -0.90400
O734        O  0.50346585  0.99375741  0.62602128    -0.76400
O735        O  0.49063512  0.01905870  0.67485317    -0.85900
O736        O  0.45915545  0.98938745  0.65533454    -0.85600
O737        O  0.45097021  0.03709877  0.70337513    -0.72300
O738        O  0.42305696  0.00996354  0.68627909    -0.84500
Zr739      Zr  0.46805295  0.98308194  0.75119656     2.26400
Zr740      Zr  0.48917436  0.03181640  0.72200559     2.06300
Zr741      Zr  0.43027734  0.97577460  0.68593602     2.10000
Zr742      Zr  0.49699843  0.98480389  0.67458990     1.78800
O743        O  0.38937679  0.96749627  0.69182554    -0.93300
O744        O  0.53747885  0.99511155  0.67101780    -0.41100
O745        O  0.46832550  0.96983160  0.70420792    -0.77700
O746        O  0.49748776  0.99753138  0.72159344    -0.96400
O747        O  0.46079402  0.01725047  0.75237974    -0.89700
O748        O  0.42994208  0.98806515  0.73310318    -0.92500
C749        C  0.49385942  0.00538776  0.60852593     1.01200
C750        C  0.40312557  0.00032658  0.63182934     1.14100
C751        C  0.48044198  0.06754740  0.67185545     1.04900
O752        O  0.52936909  0.03944414  0.71024192    -0.94700
O753        O  0.51075253  0.02472718  0.76476440    -0.90400
O754        O  0.50072318  0.99437872  0.77988358    -0.83600
C755        C  0.51298251  0.01000264  0.78123188     1.11600
O756        O  0.39638018  0.04758387  0.71873359    -0.96700
Zr757      Zr  0.42289969  0.02200467  0.73388180     1.88900
O758        O  0.44559794  0.99021190  0.79352052    -0.73300
O759        O  0.48570663  0.05865261  0.75543134    -0.52600
O760        O  0.42745766  0.05163452  0.76170236    -0.97300
O761        O  0.38229236  0.01179161  0.73467339    -0.54500
O762        O  0.41598607  0.01058483  0.78192328    -0.73800
C763        C  0.42707051  0.99973309  0.79938487     0.98500
O764        O  0.48874917  0.95636760  0.77386152    -0.62700
O765        O  0.43699674  0.94727887  0.65650657    -0.57500
O766        O  0.45011225  0.95064727  0.75389014    -0.94100
O767        O  0.42431390  0.94869184  0.71753672    -0.92600
O768        O  0.49533396  0.95390684  0.64940758    -0.92900
O769        O  0.52369415  0.96035359  0.69260324    -0.91700
C770        C  0.43380090  0.94205824  0.73999308     1.17400
H771        H  0.45770407  0.98407089  0.63648054     0.33300
H772        H  0.51283480  0.99507969  0.72901487     0.44100
H773        H  0.41850524  0.98132296  0.74441038     0.37700
H774        H  0.44719642  0.05075083  0.70283300     0.34200
H775        H  0.53706474  0.00756139  0.66049406     0.25900
H776        H  0.49988738  0.06659230  0.75253068     0.31900
H777        H  0.43724833  0.04783894  0.77799580     0.37800
H778        H  0.48840042  0.95697073  0.63078121     0.32200
H779        H  0.44877251  0.93965794  0.66697061     0.31100
H780        H  0.38772552  0.95421861  0.68393212     0.32800
H781        H  0.38206404  0.99938151  0.74529893     0.31800
H782        H  0.51551905  0.95458824  0.70902998     0.35800
H783        H  0.50513427  0.95770304  0.76775730     0.28500
H784        H  0.44555082  0.05007659  0.60976914     0.32700
H785        H  0.38649049  0.05039005  0.73538119     0.35600
H786        H  0.42255193  0.93951066  0.65823551     0.28200
H787        H  0.48881130  0.95943380  0.79432854     0.41100
H788        H  0.53218866  0.05240817  0.71873121     0.31100
H789        H  0.54198973  0.99887416  0.69046679     0.38700
H790        H  0.37883863  0.00799582  0.71491436     0.30600
H791        H  0.47290258  0.06680008  0.74806751     0.30700
H792        H  0.42832612  0.05684448  0.63369782     0.30900
Zr793      Zr  0.58615879  0.02763896  0.28549257     2.17500
O794        O  0.56429112  0.05266002  0.26039556    -0.51400
O795        O  0.60665248  0.01930235  0.24232535    -0.74600
O796        O  0.60643366  0.05908593  0.28215451    -0.81400
O797        O  0.53957162  0.98865097  0.27527806    -0.83200
O798        O  0.63395561  0.05999009  0.31664837    -0.78800
O799        O  0.55044502  0.01886613  0.26052393    -0.90400
O800        O  0.63614948  0.99868031  0.25326469    -0.76400
O801        O  0.62450392  0.02151994  0.30234892    -0.85900
O802        O  0.59142232  0.99317197  0.28425570    -0.85600
O803        O  0.58759534  0.04110320  0.33236229    -0.72300
O804        O  0.55687658  0.01425446  0.31595446    -0.84500
Zr805      Zr  0.60177243  0.98680970  0.37986219     2.26400
Zr806      Zr  0.62577785  0.03387544  0.34963855     2.06300
Zr807      Zr  0.56300498  0.97979884  0.31559340     2.10000
Zr808      Zr  0.62959848  0.98730196  0.30135012     1.78800
O809        O  0.52336183  0.97379000  0.33144504    -0.93300
O810        O  0.67077226  0.99544358  0.29867810    -0.41100
O811        O  0.60119759  0.97361480  0.33270378    -0.77700
O812        O  0.63165040  0.99937655  0.34880340    -0.96400
O813        O  0.59681565  0.02116739  0.38099877    -0.89700
O814        O  0.56362871  0.99264208  0.36254796    -0.92500
C815        C  0.62476832  0.00941414  0.23596437     1.01200
C816        C  0.53733859  0.00370226  0.25952486     1.14100
C817        C  0.62378028  0.06705500  0.29485865     1.04900
O818        O  0.66687984  0.04196619  0.34552472    -0.94700
O819        O  0.64844350  0.02589891  0.39149692    -0.90400
O820        O  0.63601107  0.99633929  0.40702650    -0.83600
C821        C  0.64989698  0.01098651  0.40773123     1.11600
O822        O  0.53568061  0.05395105  0.34482537    -0.96700
Zr823      Zr  0.55887719  0.02707280  0.36292215     1.88900
O824        O  0.57817306  0.99360327  0.42204959    -0.73300
O825        O  0.61795682  0.06246104  0.37844852    -0.52600
O826        O  0.56422628  0.05612198  0.39174829    -0.97300
O827        O  0.51754616  0.01930197  0.36543575    -0.54500
O828        O  0.55180265  0.01694368  0.41102820    -0.73800
C829        C  0.56094641  0.00476602  0.42816324     0.98500
O830        O  0.62003234  0.95973783  0.40475067    -0.62700
O831        O  0.56228974  0.95226969  0.28304780    -0.57500
O832        O  0.58492793  0.95434136  0.38103443    -0.94100
O833        O  0.56607328  0.94873156  0.33955040    -0.92600
O834        O  0.62526544  0.95819438  0.27237863    -0.92900
O835        O  0.65408988  0.96108685  0.31895806    -0.91700
C836        C  0.57392978  0.94333430  0.36366739     1.17400
H837        H  0.58933608  0.98801498  0.26540739     0.33300
H838        H  0.64695982  0.99612736  0.35568089     0.44100
H839        H  0.55210532  0.98622123  0.37414807     0.37700
H840        H  0.58522922  0.05502764  0.33155515     0.34200
H841        H  0.67727235  0.98622256  0.28467593     0.25900
H842        H  0.63347931  0.06820716  0.38195819     0.31900
H843        H  0.55108586  0.05601088  0.40526887     0.37800
H844        H  0.61466889  0.94966496  0.28330237     0.32200
H845        H  0.54563895  0.94894619  0.28086811     0.31100
H846        H  0.51999215  0.96024690  0.32557353     0.32800
H847        H  0.51631510  0.00816600  0.37863800     0.31800
H848        H  0.64402509  0.95373548  0.33219407     0.35800
H849        H  0.63632523  0.95939676  0.39803236     0.28500
H850        H  0.57437112  0.05694987  0.24458560     0.32700
H851        H  0.52424301  0.05690670  0.35985808     0.35600
H852        H  0.56693418  0.95760680  0.26443537     0.28200
H853        H  0.62094403  0.96366612  0.42487343     0.41100
H854        H  0.67494171  0.02926666  0.34474508     0.31100
H855        H  0.67135017  0.00823619  0.28906746     0.38700
H856        H  0.51381360  0.01369591  0.34669035     0.30600
H857        H  0.61029489  0.07178237  0.36552499     0.30700
H858        H  0.56343692  0.06394615  0.27337887     0.30900
Zr859      Zr  0.58616550  0.73004108  0.50249645     2.17500
O860        O  0.56297326  0.70589865  0.52782884    -0.51400
O861        O  0.60745711  0.73752453  0.54544555    -0.74600
O862        O  0.60482849  0.69811814  0.50554827    -0.81400
O863        O  0.54233874  0.77116964  0.51285976    -0.83200
O864        O  0.63321708  0.69715493  0.47214993    -0.78800
O865        O  0.55103873  0.74043402  0.52735119    -0.90400
O866        O  0.63873426  0.75607655  0.53349428    -0.76400
O867        O  0.62460985  0.73396374  0.48464024    -0.85900
O868        O  0.59450537  0.76407092  0.50373625    -0.85600
O869        O  0.58559515  0.71648636  0.45558362    -0.72300
O870        O  0.55780586  0.74515685  0.47280035    -0.84500
Zr871      Zr  0.60420823  0.76994995  0.40758286     2.26400
Zr872      Zr  0.62400196  0.72163719  0.43731775     2.06300
Zr873      Zr  0.56698822  0.77912781  0.47304286     2.10000
Zr874      Zr  0.63274429  0.76774480  0.48553547     1.78800
O875        O  0.52731052  0.78732226  0.45983915    -0.93300
O876        O  0.67255683  0.75577231  0.48551288    -0.41100
O877        O  0.60538287  0.78329652  0.45467856    -0.77700
O878        O  0.63292030  0.75562503  0.43823413    -0.96400
O879        O  0.59587368  0.73599174  0.40659037    -0.89700
O880        O  0.56598722  0.76642139  0.42599055    -0.92500
C881        C  0.62647889  0.74640217  0.55128025     1.01200
C882        C  0.53889107  0.75610930  0.52834152     1.14100
C883        C  0.62250101  0.69021510  0.49363861     1.04900
O884        O  0.66354184  0.70917103  0.43511055    -0.94700
O885        O  0.64792661  0.72882252  0.39617779    -0.90400
O886        O  0.63761197  0.75879978  0.38023339    -0.83600
C887        C  0.65052538  0.74357488  0.37981967     1.11600
O888        O  0.53025485  0.70816033  0.44313274    -0.96700
Zr889      Zr  0.55776486  0.73245029  0.42582870     1.88900
O890        O  0.57973838  0.76443324  0.36575534    -0.73300
O891        O  0.61055791  0.69341297  0.41085210    -0.52600
O892        O  0.55827758  0.70251991  0.39822538    -0.97300
O893        O  0.51768975  0.74395111  0.42493053    -0.54500
O894        O  0.55136166  0.74296910  0.37786018    -0.73800
C895        C  0.56146193  0.75429782  0.36020859     0.98500
O896        O  0.62833856  0.79227602  0.38013619    -0.62700
O897        O  0.57206399  0.80607701  0.50609508    -0.57500
O898        O  0.58939030  0.80322409  0.40705039    -0.94100
O899        O  0.56930210  0.80953227  0.44743286    -0.92600
O900        O  0.63136050  0.79767139  0.51317842    -0.92900
O901        O  0.66072745  0.79185676  0.46909802    -0.91700
C902        C  0.57794023  0.81455091  0.42352683     1.17400
H903        H  0.59311339  0.76932284  0.52258660     0.33300
H904        H  0.64844142  0.75799790  0.43127110     0.44100
H905        H  0.55496882  0.77359103  0.41466954     0.37700
H906        H  0.58208782  0.70268408  0.45640226     0.34200
H907        H  0.68024830  0.76265549  0.50135625     0.25900
H908        H  0.62224543  0.69173099  0.39568873     0.31900
H909        H  0.56729147  0.70572779  0.38100431     0.37800
H910        H  0.62648957  0.79363027  0.53238861     0.32200
H911        H  0.55772243  0.81389852  0.50424217     0.31100
H912        H  0.52438428  0.80007492  0.46887764     0.32800
H913        H  0.51818921  0.75670916  0.41523755     0.31800
H914        H  0.65157563  0.80072606  0.45695089     0.35800
H915        H  0.61792469  0.79804707  0.36575083     0.28500
H916        H  0.57296594  0.70113138  0.54339394     0.32700
H917        H  0.51957620  0.70550882  0.42715683     0.35600
H918        H  0.57101379  0.80025251  0.52520134     0.28200
H919        H  0.63233029  0.80309958  0.39309779     0.41100
H920        H  0.67307139  0.71913064  0.44487713     0.31100
H921        H  0.67134468  0.74210519  0.49198473     0.38700
H922        H  0.51402821  0.74713315  0.44486207     0.30600
H923        H  0.61313210  0.68224798  0.42369669     0.30700
H924        H  0.56128930  0.69472681  0.51474985     0.30900
Zr925      Zr  0.71837296  0.03010055  0.00122067     2.17500
O926        O  0.73972553  0.05326824  0.03059205    -0.51400
O927        O  0.69694750  0.02207655  0.04402936    -0.74600
O928        O  0.70061888  0.06246383  0.00283671    -0.81400
O929        O  0.76518554  0.99115379  0.00941488    -0.83200
O930        O  0.66984464  0.06162722  0.97280130    -0.78800
O931        O  0.75596751  0.02208208  0.02241659    -0.90400
O932        O  0.66673888  0.00214243  0.03288586    -0.76400
O933        O  0.67968019  0.02411888  0.98527824    -0.85900
O934        O  0.71275581  0.99564554  0.00251603    -0.85600
O935        O  0.71646548  0.04386338  0.95442680    -0.72300
O936        O  0.74688485  0.01646245  0.97019092    -0.84500
Zr937      Zr  0.70058530  0.98953046  0.90711108     2.26400
Zr938      Zr  0.67791547  0.03667584  0.93814256     2.06300
Zr939      Zr  0.74043648  0.98208417  0.97037897     2.10000
Zr940      Zr  0.67436308  0.98984981  0.98593948     1.78800
O941        O  0.77982086  0.97701575  0.95311792    -0.93300
O942        O  0.63273119  0.99606440  0.98705146    -0.41100
O943        O  0.70198681  0.97608015  0.95399558    -0.77700
O944        O  0.67149869  0.00225990  0.93892260    -0.96400
O945        O  0.70626677  0.02390156  0.90611954    -0.89700
O946        O  0.73902757  0.99508451  0.92359416    -0.92500
C947        C  0.67834471  0.01266256  0.05019869     1.01200
C948        C  0.76883961  0.00681527  0.02340758     1.14100
C949        C  0.68196782  0.06966322  0.99226203     1.04900
O950        O  0.63662962  0.04418119  0.94054971    -0.94700
O951        O  0.65420467  0.02884700  0.89720557    -0.90400
O952        O  0.66516312  0.99883128  0.88219337    -0.83600
C953        C  0.65170460  0.01369340  0.88166350     1.11600
O954        O  0.77048118  0.05384522  0.94405758    -0.96700
Zr955      Zr  0.74458649  0.02949173  0.92356451     1.88900
O956        O  0.72384657  0.99650256  0.86475554    -0.73300
O957        O  0.68474910  0.06612901  0.91070208    -0.52600
O958        O  0.74094467  0.05973241  0.89703507    -0.97300
O959        O  0.78532411  0.02037131  0.91828620    -0.54500
O960        O  0.74995040  0.02035124  0.87496139    -0.73800
C961        C  0.74073597  0.00796255  0.85819793     0.98500
O962        O  0.68270865  0.96302662  0.88043103    -0.62700
O963        O  0.74161960  0.95442009  0.00261970    -0.57500
O964        O  0.71572791  0.95642161  0.90642833    -0.94100
O965        O  0.73717535  0.95107763  0.94605155    -0.92600
O966        O  0.67950667  0.96199113  0.01709804    -0.92900
O967        O  0.65207840  0.96174027  0.97004209    -0.91700
C968        C  0.72783746  0.94549110  0.92276796     1.17400
H969        H  0.71500559  0.99055308  0.02137189     0.33300
H970        H  0.65593062  0.99917450  0.93275855     0.44100
H971        H  0.75010877  0.98853794  0.91156792     0.37700
H972        H  0.71911404  0.05777935  0.95491533     0.34200
H973        H  0.62722099  0.98972677  0.00463518     0.25900
H974        H  0.66899155  0.07075685  0.90572779     0.31900
H975        H  0.73093583  0.05644355  0.88068214     0.37800
H976        H  0.69067201  0.95351809  0.00703569     0.32200
H977        H  0.75826971  0.95262024  0.00713712     0.31100
H978        H  0.78417537  0.96398031  0.96022851     0.32800
H979        H  0.79085852  0.02766087  0.90151347     0.31800
H980        H  0.64695846  0.96511707  0.95066350     0.35800
H981        H  0.66694680  0.96137331  0.88851304     0.28500
H982        H  0.72838152  0.05846411  0.04439608     0.32700
H983        H  0.78035369  0.05850455  0.92828914     0.35600
H984        H  0.73459722  0.95912536  0.02045376     0.28200
H985        H  0.68025203  0.96795174  0.86098175     0.41100
H986        H  0.63094866  0.03716875  0.95748092     0.31100
H987        H  0.63142630  0.01016324  0.99096246     0.38700
H988        H  0.78518568  0.00662323  0.91207478     0.30600
H989        H  0.69053952  0.07580948  0.92452818     0.30700
H990        H  0.74358476  0.06435429  0.01803662     0.30900
Zr991      Zr  0.71958880  0.73166066  0.78524191     2.17500
O992        O  0.73873010  0.70986358  0.75179168    -0.51400
O993        O  0.69840407  0.74101894  0.74297771    -0.74600
O994        O  0.70186858  0.69906785  0.78195712    -0.81400
O995        O  0.76515817  0.77161252  0.77704969    -0.83200
O996        O  0.67287482  0.69801980  0.81444594    -0.78800
O997        O  0.75684471  0.74047631  0.76410049    -0.90400
O998        O  0.66833049  0.76072305  0.75484903    -0.76400
O999        O  0.68114148  0.73690002  0.80221680    -0.85900
O1000       O  0.71356128  0.76603970  0.78550511    -0.85600
O1001       O  0.71911631  0.71705057  0.83145654    -0.72300
O1002       O  0.74838253  0.74507989  0.81638917    -0.84500
Zr1003     Zr  0.70281868  0.77035166  0.88169319     2.26400
Zr1004     Zr  0.68069359  0.72329531  0.84875315     2.06300
Zr1005     Zr  0.74143315  0.77943327  0.81761925     2.10000
Zr1006     Zr  0.67542465  0.77114626  0.80302878     1.78800
O1007       O  0.78108467  0.78603254  0.83291014    -0.93300
O1008       O  0.63400763  0.76405747  0.79940860    -0.41100
O1009       O  0.70316459  0.78462101  0.83525847    -0.77700
O1010       O  0.67360450  0.75772622  0.84968126    -0.96400
O1011       O  0.70892557  0.73609243  0.88110505    -0.89700
O1012       O  0.74115610  0.76575231  0.86412905    -0.92500
C1013       C  0.67999085  0.75064110  0.73706803     1.01200
C1014       C  0.76889905  0.75619952  0.76251439     1.14100
C1015       C  0.68395433  0.69102616  0.79330372     1.04900
O1016       O  0.63983855  0.71451725  0.84466495    -0.94700
O1017       O  0.65731179  0.72963120  0.89027795    -0.90400
O1018       O  0.66770282  0.75962669  0.90627341    -0.83600
C1019       C  0.65458073  0.74448468  0.90631035     1.11600
O1020       O  0.77378131  0.70683789  0.84512409    -0.96700
Zr1021     Zr  0.74705452  0.73144416  0.86284749     1.88900
O1022       O  0.72626095  0.76268495  0.92361517    -0.73300
O1023       O  0.68887379  0.69337891  0.87445272    -0.52600
O1024       O  0.74101463  0.70153899  0.88960643    -0.97300
O1025       O  0.78793690  0.74072443  0.86587256    -0.54500
O1026       O  0.75376554  0.74061829  0.91132912    -0.73800
C1027       C  0.74405057  0.75204296  0.92909677     0.98500
O1028       O  0.68580292  0.79560654  0.91143426    -0.62700
O1029       O  0.74135084  0.80728253  0.78566182    -0.57500
O1030       O  0.71717603  0.80389854  0.88325106    -0.94100
O1031       O  0.73721780  0.81006991  0.84274899    -0.92600
O1032       O  0.68247955  0.80064101  0.77574444    -0.92900
O1033       O  0.65116257  0.79793360  0.81922042    -0.91700
C1034       C  0.72839314  0.81528012  0.86649747     1.17400
H1035       H  0.71556416  0.77156755  0.76687428     0.33300
H1036       H  0.65808034  0.76044636  0.85626775     0.44100
H1037       H  0.75241116  0.77223613  0.87600276     0.37700
H1038       H  0.72195697  0.70316225  0.83031880     0.34200
H1039       H  0.63321522  0.75031054  0.79322256     0.25900
H1040       H  0.68470191  0.69628337  0.89431605     0.31900
H1041       H  0.73118618  0.70534145  0.90588187     0.37800
H1042       H  0.66834131  0.80229783  0.76407457     0.32200
H1043       H  0.75795168  0.81029913  0.78228951     0.31100
H1044       H  0.78531424  0.79838334  0.82341370     0.32800
H1045       H  0.78831249  0.75262884  0.87765583     0.31800
H1046       H  0.66129164  0.80555892  0.83204137     0.35800
H1047       H  0.66924063  0.79647799  0.90593276     0.28500
H1048       H  0.72662868  0.70596056  0.73800182     0.32700
H1049       H  0.78172239  0.70161969  0.86206952     0.35600
H1050       H  0.73564190  0.80223937  0.76732396     0.28200
H1051       H  0.68574648  0.79023857  0.93087357     0.41100
H1052       H  0.63283489  0.72526541  0.83367920     0.31100
H1053       H  0.62819410  0.76384215  0.81911416     0.38700
H1054       H  0.79194805  0.74533230  0.84663316     0.30600
H1055       H  0.67677856  0.68410092  0.86805456     0.30700
H1056       H  0.74251363  0.69786987  0.76242632     0.30900
Zr1057     Zr  0.85235738  0.73848031  0.15586940     2.17500
O1058       O  0.87141531  0.71735230  0.12144214    -0.51400
O1059       O  0.82887053  0.74669619  0.11426536    -0.74600
O1060       O  0.83552168  0.70576149  0.15374508    -0.81400
O1061       O  0.90059167  0.77634868  0.14880310    -0.83200
O1062       O  0.81305811  0.70040996  0.19251450    -0.78800
O1063       O  0.89004677  0.74592008  0.13495685    -0.90400
O1064       O  0.80012988  0.76725499  0.12775913    -0.76400
O1065       O  0.81433136  0.74371790  0.17397528    -0.85900
O1066       O  0.84663649  0.77285010  0.15571742    -0.85600
O1067       O  0.85279136  0.72434548  0.20254404    -0.72300
O1068       O  0.88181963  0.75147815  0.18677887    -0.84500
Zr1069     Zr  0.83627949  0.77787655  0.25196391     2.26400
Zr1070     Zr  0.81460094  0.73003464  0.22060140     2.06300
Zr1071     Zr  0.87520453  0.78579462  0.18716450     2.10000
Zr1072     Zr  0.80891920  0.77811385  0.17478488     1.78800
O1073       O  0.91523399  0.79691978  0.19213080    -0.93300
O1074       O  0.76753860  0.77080478  0.17606990    -0.41100
O1075       O  0.83726411  0.79223416  0.20555951    -0.77700
O1076       O  0.80728748  0.76447276  0.22100361    -0.96400
O1077       O  0.84281714  0.74359468  0.25208391    -0.89700
O1078       O  0.87451153  0.77271543  0.23402537    -0.92500
C1079       C  0.81036842  0.75661179  0.10947314     1.01200
C1080       C  0.90358021  0.76079591  0.13435993     1.14100
C1081       C  0.82213286  0.69506211  0.16898823     1.04900
O1082       O  0.77401713  0.72199144  0.21188911    -0.94700
O1083       O  0.79128163  0.73688839  0.26192265    -0.90400
O1084       O  0.80219400  0.76659925  0.27863367    -0.83600
C1085       C  0.78908383  0.75140602  0.27869814     1.11600
O1086       O  0.90309851  0.71029820  0.21895154    -0.96700
Zr1087     Zr  0.88086349  0.73866254  0.23385743     1.88900
O1088       O  0.85849675  0.76982560  0.29406482    -0.73300
O1089       O  0.82116173  0.70322327  0.25328053    -0.52600
O1090       O  0.87838208  0.70995292  0.26396350    -0.97300
O1091       O  0.92177612  0.74781534  0.23142372    -0.54500
O1092       O  0.88867048  0.75032105  0.28154476    -0.73800
C1093       C  0.87734891  0.76060887  0.29949117     0.98500
O1094       O  0.81512446  0.80344449  0.27694814    -0.62700
O1095       O  0.86684151  0.81260903  0.15503210    -0.57500
O1096       O  0.85465414  0.81006407  0.25542378    -0.94100
O1097       O  0.88121881  0.81229741  0.21982038    -0.92600
O1098       O  0.81316256  0.80714011  0.14563923    -0.92900
O1099       O  0.78522631  0.80504888  0.19158542    -0.91700
C1100       C  0.87131147  0.81869151  0.24220204     1.17400
H1101       H  0.84829987  0.77827746  0.13694962     0.33300
H1102       H  0.79182317  0.76713894  0.22783929     0.44100
H1103       H  0.88596666  0.77914820  0.24568816     0.37700
H1104       H  0.85608362  0.71060586  0.20162258     0.34200
H1105       H  0.76111610  0.77709602  0.15894466     0.25900
H1106       H  0.80740724  0.69469040  0.25098281     0.31900
H1107       H  0.87005988  0.71429403  0.28115460     0.37800
H1108       H  0.79950548  0.80698724  0.13290987     0.32200
H1109       H  0.86589899  0.82425513  0.16728989     0.31100
H1110       H  0.91699511  0.80749952  0.17806199     0.32800
H1111       H  0.92199117  0.76213077  0.23368603     0.31800
H1112       H  0.79000492  0.80688202  0.21152763     0.35800
H1113       H  0.79877963  0.80253758  0.27050506     0.28500
H1114       H  0.85908852  0.71319131  0.10812217     0.32700
H1115       H  0.91640482  0.70947725  0.23216303     0.35600
H1116       H  0.88134176  0.81444358  0.14406338     0.28200
H1117       H  0.81485828  0.79954754  0.29712117     0.41100
H1118       H  0.77210091  0.72320877  0.19116116     0.31100
H1119       H  0.76654261  0.75669841  0.17204504     0.38700
H1120       H  0.92622572  0.74568368  0.21143142     0.30600
H1121       H  0.83413668  0.69574420  0.24491580     0.30700
H1122       H  0.87585770  0.70541982  0.13184090     0.30900
Zr1123     Zr  0.84916380  0.52302542  0.12655851     2.17500
O1124       O  0.87211283  0.54767026  0.15115789    -0.51400
O1125       O  0.82654732  0.51608097  0.16947221    -0.74600
O1126       O  0.82979079  0.55449091  0.12949514    -0.81400
O1127       O  0.89776379  0.48661000  0.13540585    -0.83200
O1128       O  0.81048193  0.55994867  0.08838614    -0.78800
O1129       O  0.88440636  0.51546114  0.15228879    -0.90400
O1130       O  0.79918618  0.49361535  0.15776985    -0.76400
O1131       O  0.81113557  0.51692052  0.10895730    -0.85900
O1132       O  0.84419729  0.48858544  0.12839091    -0.85600
O1133       O  0.84966610  0.53610157  0.07929865    -0.72300
O1134       O  0.87871491  0.50974608  0.09605872    -0.84500
Zr1135     Zr  0.83420790  0.48106629  0.03233962     2.26400
Zr1136     Zr  0.81145358  0.52951738  0.06172276     2.06300
Zr1137     Zr  0.87289649  0.47533859  0.09752546     2.10000
Zr1138     Zr  0.80646791  0.48242180  0.11000051     1.78800
O1139       O  0.91296294  0.46399282  0.09875666    -0.93300
O1140       O  0.76505799  0.48964404  0.10891245    -0.41100
O1141       O  0.83506275  0.46795875  0.07962324    -0.77700
O1142       O  0.80507178  0.49492034  0.06286146    -0.96400
O1143       O  0.83978872  0.51550734  0.03076849    -0.89700
O1144       O  0.87219099  0.48744920  0.05013371    -0.92500
C1145       C  0.80884046  0.50533347  0.17531605     1.01200
C1146       C  0.89901876  0.50141656  0.15178222     1.14100
C1147       C  0.81788126  0.56529132  0.11279793     1.04900
O1148       O  0.77070410  0.53564537  0.07210863    -0.94700
O1149       O  0.78952413  0.52099544  0.01974041    -0.90400
O1150       O  0.80123009  0.49140834  0.00326059    -0.83600
C1151       C  0.78801226  0.50648629  0.00272655     1.11600
O1152       O  0.90445075  0.54750371  0.06179228    -0.96700
Zr1153     Zr  0.87771647  0.52153509  0.04836656     1.88900
O1154       O  0.85531001  0.48894980  0.98892438    -0.73300
O1155       O  0.81379194  0.55707766  0.02934442    -0.52600
O1156       O  0.86922111  0.55041342  0.02036670    -0.97300
O1157       O  0.91864011  0.51247391  0.04466632    -0.54500
O1158       O  0.88394604  0.51045135  0.00025872    -0.73800
C1159       C  0.87326398  0.49930018  0.98282641     0.98500
O1160       O  0.81017011  0.45434472  0.01454969    -0.62700
O1161       O  0.86294173  0.44886318  0.12959767    -0.57500
O1162       O  0.85645362  0.45063397  0.02745308    -0.94100
O1163       O  0.88160789  0.44933696  0.06460388    -0.92600
O1164       O  0.80993414  0.45323450  0.13900281    -0.92900
O1165       O  0.78268625  0.45491777  0.09506046    -0.91700
C1166       C  0.87322154  0.44273428  0.04136851     1.17400
H1167       H  0.84603173  0.48366477  0.14741683     0.33300
H1168       H  0.78974122  0.49189744  0.05576869     0.44100
H1169       H  0.88382533  0.48124903  0.03853774     0.37700
H1170       H  0.85276249  0.54990947  0.07978653     0.34200
H1171       H  0.75847104  0.48250593  0.12525912     0.25900
H1172       H  0.79933635  0.56451653  0.03271475     0.31900
H1173       H  0.88064176  0.55021686  0.00471134     0.37800
H1174       H  0.81529788  0.45778914  0.15776289     0.32200
H1175       H  0.86218174  0.43715982  0.11743296     0.31100
H1176       H  0.91301790  0.45308282  0.11244607     0.32800
H1177       H  0.92400122  0.51800785  0.02645189     0.31800
H1178       H  0.79282639  0.44732429  0.08225891     0.35800
H1179       H  0.81458622  0.44273449  0.02568864     0.28500
H1180       H  0.86206662  0.55273729  0.16647319     0.32700
H1181       H  0.91144238  0.55214642  0.04386944     0.35600
H1182       H  0.87702848  0.44696983  0.14128609     0.28200
H1183       H  0.79424678  0.45724333  0.02125240     0.41100
H1184       H  0.77027398  0.53852674  0.09261989     0.31100
H1185       H  0.76397557  0.50351483  0.11436627     0.38700
H1186       H  0.91879275  0.49823037  0.04157239     0.30600
H1187       H  0.82633093  0.56548566  0.03690071     0.30700
H1188       H  0.87385161  0.55858219  0.13763269     0.30900
Zr1189     Zr  0.95344032  0.52164293  0.65366656     2.17500
O1190       O  0.93412854  0.54330889  0.62019839    -0.51400
O1191       O  0.97713495  0.51401358  0.61202679    -0.74600
O1192       O  0.97000477  0.55447756  0.65207895    -0.81400
O1193       O  0.90583154  0.48347757  0.64670102    -0.83200
O1194       O  0.99150688  0.55979755  0.69160827    -0.78800
O1195       O  0.91618970  0.51375749  0.63199534    -0.90400
O1196       O  0.00351850  0.49066534  0.62291375    -0.76400
O1197       O  0.99149149  0.51684218  0.67158383    -0.85900
O1198       O  0.96031539  0.48741925  0.65277673    -0.85600
O1199       O  0.95237546  0.53542207  0.70061303    -0.72300
O1200       O  0.92451288  0.50748570  0.68424188    -0.84500
Zr1201     Zr  0.96997741  0.48149709  0.74906946     2.26400
Zr1202     Zr  0.99077252  0.52986851  0.71839717     2.06300
Zr1203     Zr  0.93222622  0.47336752  0.68377536     2.10000
Zr1204     Zr  0.99813775  0.48262338  0.67189750     1.78800
O1205       O  0.89385674  0.45836685  0.68245222    -0.93300
O1206       O  0.03791283  0.49455918  0.66800712    -0.41100
O1207       O  0.97016969  0.46753019  0.70239629    -0.77700
O1208       O  0.99899540  0.49561958  0.71868649    -0.96400
O1209       O  0.96266341  0.51560596  0.74937786    -0.89700
O1210       O  0.93173136  0.48621878  0.73078953    -0.92500
C1211       C  0.99408658  0.50263210  0.60577489     1.01200
C1212       C  0.90267806  0.49887040  0.63189415     1.14100
C1213       C  0.98275670  0.56520958  0.66799847     1.04900
O1214       O  0.03086506  0.53517130  0.70374491    -0.94700
O1215       O  0.01264729  0.52412037  0.76097650    -0.90400
O1216       O  0.00306598  0.49378439  0.77659774    -0.83600
C1217       C  0.01513617  0.50956206  0.77759276     1.11600
O1218       O  0.89738462  0.54422901  0.71313202    -0.96700
Zr1219     Zr  0.92460332  0.52014195  0.73137751     1.88900
O1220       O  0.94786459  0.48880748  0.79167768    -0.73300
O1221       O  0.98803354  0.55730852  0.75090945    -0.52600
O1222       O  0.92948464  0.54927991  0.76017129    -0.97300
O1223       O  0.88372129  0.51093389  0.73389381    -0.54500
O1224       O  0.91838300  0.50920009  0.77970142    -0.73800
C1225       C  0.92943511  0.49852058  0.79740268     0.98500
O1226       O  0.99197084  0.45553645  0.77187580    -0.62700
O1227       O  0.94526319  0.44761206  0.65220587    -0.57500
O1228       O  0.95118321  0.44951532  0.75308420    -0.94100
O1229       O  0.92481321  0.44750337  0.71730577    -0.92600
O1230       O  0.99610212  0.45155804  0.64722203    -0.92900
O1231       O  0.02589039  0.45877356  0.68930783    -0.91700
C1232       C  0.93432702  0.44110784  0.73996371     1.17400
H1233       H  0.95874809  0.48215827  0.63390664     0.33300
H1234       H  0.01445206  0.49327838  0.72584185     0.44100
H1235       H  0.92022154  0.47972895  0.74229716     0.37700
H1236       H  0.94877874  0.54910610  0.70002574     0.34200
H1237       H  0.04502124  0.48655407  0.65291286     0.25900
H1238       H  0.00024304  0.56658052  0.74482858     0.31900
H1239       H  0.91630294  0.54904749  0.77363365     0.37800
H1240       H  0.00852599  0.45217544  0.63275861     0.32200
H1241       H  0.93845243  0.43555584  0.66014624     0.31100
H1242       H  0.89488203  0.44825078  0.66758569     0.32800
H1243       H  0.88316333  0.49943089  0.74647647     0.31800
H1244       H  0.02033345  0.45552245  0.70856253     0.35800
H1245       H  0.00816466  0.45707585  0.76513387     0.28500
H1246       H  0.94636651  0.54775143  0.60693232     0.32700
H1247       H  0.89190774  0.55169540  0.72973488     0.35600
H1248       H  0.93658282  0.44981092  0.63441531     0.28200
H1249       H  0.99246295  0.45892804  0.79222746     0.41100
H1250       H  0.04006853  0.52560086  0.71462504     0.31100
H1251       H  0.03649639  0.50766725  0.65949694     0.38700
H1252       H  0.88011013  0.50568278  0.71488790     0.30600
H1253       H  0.97321577  0.56376839  0.74601026     0.30700
H1254       H  0.92964811  0.55503500  0.63106479     0.30900
Zr1255     Zr  0.95354815  0.73792359  0.62903310     2.17500
O1256       O  0.93132043  0.71438130  0.65671274    -0.51400
O1257       O  0.97638074  0.74449619  0.67199552    -0.74600
O1258       O  0.97121000  0.70540788  0.62966808    -0.81400
O1259       O  0.90524679  0.77547522  0.63725646    -0.83200
O1260       O  0.99264642  0.70087326  0.58986382    -0.78800
O1261       O  0.91734432  0.74586198  0.65281968    -0.90400
O1262       O  0.00192989  0.76884125  0.66228155    -0.76400
O1263       O  0.99181778  0.74413667  0.61250232    -0.85900
O1264       O  0.95868834  0.77241498  0.63113315    -0.85600
O1265       O  0.95374060  0.72511276  0.58155165    -0.72300
O1266       O  0.92458967  0.75164613  0.59804588    -0.84500
Zr1267     Zr  0.97066551  0.77971106  0.53551330     2.26400
Zr1268     Zr  0.99238226  0.73172285  0.56525478     2.06300
Zr1269     Zr  0.93075573  0.78603653  0.59941255     2.10000
Zr1270     Zr  0.99672667  0.77860505  0.61367958     1.78800
O1271       O  0.89083118  0.79766970  0.59744142    -0.93300
O1272       O  0.03778421  0.77075376  0.61862206    -0.41100
O1273       O  0.96899869  0.79307377  0.58247010    -0.77700
O1274       O  0.99941842  0.76618444  0.56668590    -0.96400
O1275       O  0.96440239  0.74547619  0.53374731    -0.89700
O1276       O  0.93207278  0.77390396  0.55198989    -0.92500
C1277       C  0.99290829  0.75623610  0.67892234     1.01200
C1278       C  0.90316117  0.76024622  0.65272025     1.14100
C1279       C  0.98392649  0.69496613  0.61325681     1.04900
O1280       O  0.03233734  0.72611572  0.58005992    -0.94700
O1281       O  0.01548094  0.73955180  0.52435610    -0.90400
O1282       O  0.00566223  0.77001290  0.50978510    -0.83600
C1283       C  0.01822781  0.75458087  0.50873999     1.11600
O1284       O  0.89912551  0.71461760  0.56578382    -0.96700
Zr1285     Zr  0.92604156  0.73992189  0.55036527     1.88900
O1286       O  0.95163728  0.77098901  0.49141503    -0.73300
O1287       O  0.99213099  0.70533624  0.53078184    -0.52600
O1288       O  0.93098731  0.71112753  0.52095334    -0.97300
O1289       O  0.88565178  0.75042321  0.54700027    -0.54500
O1290       O  0.92164123  0.75058823  0.50161235    -0.73800
C1291       C  0.93361608  0.76108006  0.48452172     0.98500
O1292       O  0.98935481  0.80747636  0.51274786    -0.62700
O1293       O  0.93974529  0.81349222  0.63013809    -0.57500
O1294       O  0.95086884  0.81098431  0.53105490    -0.94100
O1295       O  0.92349947  0.81186769  0.56579201    -0.92600
O1296       O  0.99045830  0.80963559  0.63729409    -0.92900
O1297       O  0.02363095  0.80378613  0.59804051    -0.91700
C1298       C  0.93335637  0.81870086  0.54361058     1.17400
H1299       H  0.95651436  0.77738050  0.65008894     0.33300
H1300       H  0.01498814  0.76913670  0.56046345     0.44100
H1301       H  0.92072136  0.78016356  0.54005553     0.37700
H1302       H  0.95048165  0.71135604  0.58166510     0.34200
H1303       H  0.04222928  0.77555694  0.63761364     0.25900
H1304       H  0.00606109  0.69748276  0.53523017     0.31900
H1305       H  0.93490267  0.70052439  0.53427762     0.37800
H1306       H  0.99713875  0.80798270  0.65642226     0.32200
H1307       H  0.93281132  0.82489791  0.62056457     0.31100
H1308       H  0.89095556  0.81012308  0.60798841     0.32800
H1309       H  0.88506296  0.75954729  0.53081464     0.31800
H1310       H  0.01976137  0.80583707  0.57785298     0.35800
H1311       H  0.00559672  0.80745885  0.51962527     0.28500
H1312       H  0.94236568  0.70871808  0.67047687     0.32700
H1313       H  0.88898787  0.71203777  0.54927992     0.35600
H1314       H  0.92991568  0.81145717  0.64707709     0.28200
H1315       H  0.99039620  0.80402141  0.49245020     0.41100
H1316       H  0.04154307  0.73645426  0.57068230     0.31100
H1317       H  0.03819994  0.75640616  0.62034378     0.38700
H1318       H  0.88325670  0.75876386  0.56381881     0.30600
H1319       H  0.97883539  0.69695992  0.53617844     0.30700
H1320       H  0.92751826  0.70366156  0.64348941     0.30900
Zr1321     Zr  0.71727351  0.52832763  0.50047635     2.17500
O1322       O  0.73843031  0.55164789  0.52972342    -0.51400
O1323       O  0.69533467  0.51981927  0.54261339    -0.74600
O1324       O  0.69756861  0.55977278  0.50316748    -0.81400
O1325       O  0.76353217  0.49006815  0.51130186    -0.83200
O1326       O  0.66969440  0.55975690  0.46913785    -0.78800
O1327       O  0.75288741  0.52031844  0.52578911    -0.90400
O1328       O  0.66538027  0.50024847  0.52940058    -0.76400
O1329       O  0.67944421  0.52296790  0.48149015    -0.85900
O1330       O  0.71121521  0.49394062  0.50091810    -0.85600
O1331       O  0.71780333  0.54244229  0.45383946    -0.72300
O1332       O  0.74705993  0.51485671  0.47108853    -0.84500
Zr1333     Zr  0.70364001  0.48837114  0.40431524     2.26400
Zr1334     Zr  0.68024744  0.53560585  0.43427548     2.06300
Zr1335     Zr  0.74035337  0.48051747  0.47066512     2.10000
Zr1336     Zr  0.67360211  0.48884546  0.48164056     1.78800
O1337       O  0.78049791  0.47390320  0.45739900    -0.93300
O1338       O  0.63295863  0.49852307  0.47908857    -0.41100
O1339       O  0.70250872  0.47468046  0.45130741    -0.77700
O1340       O  0.67348129  0.50122966  0.43456860    -0.96400
O1341       O  0.70967153  0.52268499  0.40400279    -0.89700
O1342       O  0.74136325  0.49364315  0.42369002    -0.92500
C1343       C  0.67647782  0.51049778  0.54767290     1.01200
C1344       C  0.76596225  0.50521592  0.52686393     1.14100
C1345       C  0.67965461  0.56702434  0.49094256     1.04900
O1346       O  0.64095660  0.54858634  0.43209877    -0.94700
O1347       O  0.65686439  0.52661911  0.39336837    -0.90400
O1348       O  0.66817206  0.49665142  0.37837624    -0.83600
C1349       C  0.65468222  0.51152879  0.37756237     1.11600
O1350       O  0.77095368  0.55416444  0.44364041    -0.96700
Zr1351     Zr  0.74700554  0.52806285  0.42440959     1.88900
O1352       O  0.72890955  0.49620198  0.36385733    -0.73300
O1353       O  0.69241826  0.56370838  0.40660656    -0.52600
O1354       O  0.74349947  0.55778557  0.39665709    -0.97300
O1355       O  0.78806959  0.51945442  0.42493612    -0.54500
O1356       O  0.75556426  0.51903716  0.37637241    -0.73800
C1357       C  0.74633500  0.50739259  0.35849709     0.98500
O1358       O  0.68527427  0.46704263  0.36950749    -0.62700
O1359       O  0.73973547  0.45372782  0.50450302    -0.57500
O1360       O  0.71828482  0.45496362  0.40543433    -0.94100
O1361       O  0.73841764  0.44955296  0.44602931    -0.92600
O1362       O  0.67623107  0.45895748  0.50903186    -0.92900
O1363       O  0.64764043  0.46327568  0.46502231    -0.91700
C1364       C  0.72983266  0.44399518  0.42231345     1.17400
H1365       H  0.71248867  0.48860438  0.51973083     0.33300
H1366       H  0.65810432  0.49813237  0.42781114     0.44100
H1367       H  0.75310170  0.48717362  0.41252521     0.37700
H1368       H  0.72037170  0.55636615  0.45491416     0.34200
H1369       H  0.62569822  0.49291507  0.49624198     0.25900
H1370       H  0.68217133  0.56353416  0.38979114     0.31900
H1371       H  0.73492715  0.55393268  0.37938135     0.37800
H1372       H  0.68956506  0.45192191  0.50067648     0.32200
H1373       H  0.75587293  0.44876983  0.50469643     0.31100
H1374       H  0.78826457  0.46983646  0.47511550     0.32800
H1375       H  0.78916168  0.50725403  0.41389772     0.31800
H1376       H  0.65168277  0.46163692  0.44480013     0.35800
H1377       H  0.69807765  0.46157375  0.35800900     0.28500
H1378       H  0.72758086  0.55527050  0.54509901     0.32700
H1379       H  0.78175894  0.55783425  0.42822602     0.35600
H1380       H  0.73764588  0.45979858  0.52331914     0.28200
H1381       H  0.67886977  0.45588970  0.38026968     0.41100
H1382       H  0.63151597  0.53948731  0.44360533     0.31100
H1383       H  0.63309878  0.51272734  0.48256533     0.38700
H1384       H  0.79118428  0.51544544  0.44468834     0.30600
H1385       H  0.68713151  0.57507951  0.41771098     0.30700
H1386       H  0.74016371  0.56353975  0.51808876     0.30900
Zr1387     Zr  0.72102966  0.23008952  0.28425246     2.17500
O1388       O  0.74285771  0.20600534  0.25725417    -0.51400
O1389       O  0.69931669  0.23782035  0.24149568    -0.74600
O1390       O  0.70190975  0.19808018  0.28225572    -0.81400
O1391       O  0.76726393  0.26957192  0.27455977    -0.83200
O1392       O  0.67214515  0.19857336  0.31379799    -0.78800
O1393       O  0.75652290  0.23941643  0.25931908    -0.90400
O1394       O  0.67130726  0.25981653  0.25249989    -0.76400
O1395       O  0.68269775  0.23686858  0.30036398    -0.85900
O1396       O  0.71671994  0.26461822  0.28359631    -0.85600
O1397       O  0.71919397  0.21628450  0.33095055    -0.72300
O1398       O  0.75004415  0.24309644  0.31554073    -0.84500
Zr1399     Zr  0.70540940  0.27060733  0.37954370     2.26400
Zr1400     Zr  0.68091962  0.22413504  0.34740765     2.06300
Zr1401     Zr  0.74472096  0.27771712  0.31582358     2.10000
Zr1402     Zr  0.67874397  0.27125502  0.30019316     1.78800
O1403       O  0.78550778  0.28239564  0.32789592    -0.93300
O1404       O  0.63722244  0.26432390  0.29861080    -0.41100
O1405       O  0.70654321  0.28452392  0.33284287    -0.77700
O1406       O  0.67600526  0.25875811  0.34720331    -0.96400
O1407       O  0.70958669  0.23612634  0.37984618    -0.89700
O1408       O  0.74354408  0.26443273  0.36259331    -0.92500
C1409       C  0.68168986  0.24839181  0.23524146     1.01200
C1410       C  0.76953688  0.25465157  0.25861153     1.14100
C1411       C  0.68354435  0.19073159  0.29354496     1.04900
O1412       O  0.63972573  0.21634517  0.34379160    -0.94700
O1413       O  0.65687973  0.23297624  0.38741502    -0.90400
O1414       O  0.66956137  0.26219317  0.40404878    -0.83600
C1415       C  0.65519934  0.24786386  0.40360115     1.11600
O1416       O  0.77340779  0.20441649  0.34490284    -0.96700
Zr1417     Zr  0.74765487  0.22990677  0.36226799     1.88900
O1418       O  0.72931431  0.26348312  0.42147868    -0.73300
O1419       O  0.68732670  0.19507098  0.37578644    -0.52600
O1420       O  0.74010207  0.20029918  0.38918337    -0.97300
O1421       O  0.78896160  0.23748041  0.36625269    -0.54500
O1422       O  0.75427001  0.23905804  0.41078956    -0.73800
C1423       C  0.74581318  0.25164563  0.42782301     0.98500
O1424       O  0.68531981  0.29280247  0.41154989    -0.62700
O1425       O  0.74260746  0.30592501  0.28467700    -0.57500
O1426       O  0.72132305  0.30364174  0.37943056    -0.94100
O1427       O  0.74504586  0.30834335  0.34162264    -0.92600
O1428       O  0.68680818  0.29971294  0.27107131    -0.92900
O1429       O  0.65544300  0.29942172  0.31312629    -0.91700
C1430       C  0.73481762  0.31421943  0.36417952     1.17400
H1431       H  0.71903164  0.26971736  0.26475587     0.33300
H1432       H  0.66057171  0.26226320  0.35334120     0.44100
H1433       H  0.75506207  0.27067884  0.37440451     0.37700
H1434       H  0.72133256  0.20236828  0.33029336     0.34200
H1435       H  0.63133106  0.27202674  0.28244266     0.25900
H1436       H  0.67152882  0.19076343  0.38128089     0.31900
H1437       H  0.75236509  0.19993989  0.40385527     0.37800
H1438       H  0.69451378  0.30904657  0.28400041     0.32200
H1439       H  0.75879382  0.31072492  0.28325042     0.31100
H1440       H  0.79150561  0.29154273  0.31343335     0.32800
H1441       H  0.79452560  0.22970964  0.38252287     0.31800
H1442       H  0.65305732  0.29812908  0.33377961     0.35800
H1443       H  0.69735487  0.29794666  0.42453782     0.28500
H1444       H  0.73185374  0.20052936  0.24323838     0.32700
H1445       H  0.78016016  0.19823141  0.36192677     0.35600
H1446       H  0.73909435  0.30068294  0.26565310     0.28200
H1447       H  0.68048742  0.30405549  0.39988347     0.41100
H1448       H  0.63276400  0.22775388  0.33426703     0.31100
H1449       H  0.63616838  0.25065316  0.29211861     0.38700
H1450       H  0.78968592  0.25109944  0.37300127     0.30600
H1451       H  0.69265114  0.18507851  0.36217993     0.30700
H1452       H  0.74603040  0.19525455  0.27064409     0.30900
Zr1453     Zr  0.58318028  0.53041423  0.78321190     2.17500
O1454       O  0.55933418  0.55658796  0.76408787    -0.51400
O1455       O  0.60307386  0.52226158  0.73940754    -0.74600
O1456       O  0.60505106  0.56085171  0.77744913    -0.81400
O1457       O  0.53680060  0.49114557  0.77329407    -0.83200
O1458       O  0.63217104  0.56151582  0.81246579    -0.78800
O1459       O  0.54841360  0.52085788  0.75703191    -0.90400
O1460       O  0.63270779  0.50198350  0.75115760    -0.76400
O1461       O  0.62151672  0.52434322  0.80005342    -0.85900
O1462       O  0.58815541  0.49593434  0.78244172    -0.85600
O1463       O  0.58515376  0.54426004  0.82988045    -0.72300
O1464       O  0.55413318  0.51693869  0.81388181    -0.84500
Zr1465     Zr  0.59960082  0.49007782  0.87775239     2.26400
Zr1466     Zr  0.62320789  0.53686783  0.84719116     2.06300
Zr1467     Zr  0.56000575  0.48246847  0.81413010     2.10000
Zr1468     Zr  0.62639167  0.49016163  0.79903707     1.78800
O1469       O  0.51966857  0.47670950  0.82736001    -0.93300
O1470       O  0.66756642  0.49833620  0.79751616    -0.41100
O1471       O  0.59845729  0.47640856  0.83096952    -0.77700
O1472       O  0.62922141  0.50243771  0.84628834    -0.96400
O1473       O  0.59435745  0.52438142  0.87854853    -0.89700
O1474       O  0.56117365  0.49575142  0.86093223    -0.92500
C1475       C  0.62142048  0.51251043  0.73348304     1.01200
C1476       C  0.53502046  0.50585147  0.75669309     1.14100
C1477       C  0.62273747  0.56835930  0.79005453     1.04900
O1478       O  0.66392676  0.54642199  0.84551824    -0.94700
O1479       O  0.64686627  0.52840090  0.88785716    -0.90400
O1480       O  0.63520403  0.49851117  0.90276558    -0.83600
C1481       C  0.64896693  0.51322851  0.90340832     1.11600
O1482       O  0.53381019  0.55743719  0.84218416    -0.96700
Zr1483     Zr  0.55643985  0.53027746  0.86033321     1.88900
O1484       O  0.57490603  0.49669401  0.91897206    -0.73300
O1485       O  0.61509765  0.56532580  0.87622429    -0.52600
O1486       O  0.56091531  0.55911172  0.88979579    -0.97300
O1487       O  0.51490236  0.52330103  0.86132803    -0.54500
O1488       O  0.54907815  0.52048139  0.90814240    -0.73800
C1489       C  0.55794677  0.50808836  0.92511146     0.98500
O1490       O  0.61700627  0.46849728  0.91290238    -0.62700
O1491       O  0.56290063  0.45482434  0.78194320    -0.57500
O1492       O  0.58878422  0.45600374  0.87268340    -0.94100
O1493       O  0.56009262  0.45196354  0.84026086    -0.92600
O1494       O  0.62139322  0.46130963  0.76976585    -0.92900
O1495       O  0.65029148  0.46256872  0.81283999    -0.91700
C1496       C  0.57381969  0.44557111  0.85945869     1.17400
H1497       H  0.58602855  0.49075416  0.76362214     0.33300
H1498       H  0.64468589  0.49913511  0.85247928     0.44100
H1499       H  0.54970564  0.48939033  0.87267897     0.37700
H1500       H  0.58300418  0.55820108  0.82898489     0.34200
H1501       H  0.67358833  0.49137126  0.78072058     0.25900
H1502       H  0.61716981  0.56076181  0.89592937     0.31900
H1503       H  0.57217296  0.55533157  0.90463225     0.37800
H1504       H  0.63428105  0.46190331  0.75590839     0.32200
H1505       H  0.54755628  0.44832679  0.78301716     0.31100
H1506       H  0.51418653  0.46654357  0.81409231     0.32800
H1507       H  0.51366008  0.50982227  0.86855732     0.31800
H1508       H  0.64600167  0.46003649  0.83278900     0.35800
H1509       H  0.60396823  0.46154852  0.92216161     0.28500
H1510       H  0.56746658  0.56109052  0.74682021     0.32700
H1511       H  0.53152616  0.55441256  0.82189110     0.35600
H1512       H  0.56343945  0.46045380  0.76268282     0.28200
H1513       H  0.62549797  0.45840461  0.90211153     0.41100
H1514       H  0.67168379  0.53571065  0.83521812     0.31100
H1515       H  0.66801291  0.51223919  0.79204827     0.38700
H1516       H  0.51030908  0.52229415  0.84119751     0.30600
H1517       H  0.62847991  0.57411111  0.87288675     0.30700
H1518       H  0.56079774  0.56747055  0.77771148     0.30900
Zr1519     Zr  0.58834171  0.23364087  0.00023916     2.17500
O1520       O  0.56747426  0.21054334  0.03020894    -0.51400
O1521       O  0.60885165  0.24253778  0.04329038    -0.74600
O1522       O  0.60713425  0.20166477  0.00373566    -0.81400
O1523       O  0.54303636  0.27350700  0.00960907    -0.83200
O1524       O  0.63541343  0.20038213  0.97021831    -0.78800
O1525       O  0.55220355  0.24274437  0.02342713    -0.90400
O1526       O  0.63819567  0.26331096  0.03208727    -0.76400
O1527       O  0.62678518  0.23960105  0.98375984    -0.85900
O1528       O  0.59336833  0.26813877  0.00034226    -0.85600
O1529       O  0.58981598  0.21921504  0.95388475    -0.72300
O1530       O  0.55934095  0.24646724  0.96892591    -0.84500
Zr1531     Zr  0.60544537  0.27286795  0.90496066     2.26400
Zr1532     Zr  0.62822031  0.22623064  0.93700274     2.06300
Zr1533     Zr  0.56545713  0.28098773  0.96780477     2.10000
Zr1534     Zr  0.63159784  0.27394703  0.98374428     1.78800
O1535       O  0.52471899  0.28567285  0.95578032    -0.93300
O1536       O  0.67324415  0.26856783  0.98839685    -0.41100
O1537       O  0.60398381  0.28729363  0.95124040    -0.77700
O1538       O  0.63444953  0.26061365  0.93716723    -0.96400
O1539       O  0.59988145  0.23854798  0.90481869    -0.89700
O1540       O  0.56692769  0.26740603  0.92138015    -0.92500
C1541       C  0.62683924  0.25267702  0.04957929     1.01200
C1542       C  0.54001138  0.25832870  0.02492572     1.14100
C1543       C  0.62463266  0.19353792  0.99168267     1.04900
O1544       O  0.66948882  0.21976428  0.94289387    -0.94700
O1545       O  0.65127516  0.23365750  0.89542711    -0.90400
O1546       O  0.64124085  0.26406122  0.88107211    -0.83600
C1547       C  0.65427313  0.24896543  0.88035415     1.11600
O1548       O  0.53766701  0.20622553  0.93959787    -0.96700
Zr1549     Zr  0.56166120  0.23302085  0.92246436     1.88900
O1550       O  0.58013736  0.26702279  0.86394073    -0.73300
O1551       O  0.62194196  0.19704754  0.90863973    -0.52600
O1552       O  0.56620395  0.20431230  0.89271332    -0.97300
O1553       O  0.52072212  0.24204763  0.92157234    -0.54500
O1554       O  0.55442817  0.24300443  0.87459049    -0.73800
C1555       C  0.56305602  0.25567877  0.85778894     0.98500
O1556       O  0.62423258  0.29331393  0.86935140    -0.62700
O1557       O  0.56679562  0.31034790  0.99666618    -0.57500
O1558       O  0.59485893  0.30694649  0.90872084    -0.94100
O1559       O  0.56419630  0.31006300  0.93857136    -0.92600
O1560       O  0.62298253  0.30345924  0.01018965    -0.92900
O1561       O  0.65639402  0.30018156  0.96664281    -0.91700
C1562       C  0.57831716  0.31671065  0.91992856     1.17400
H1563       H  0.59105074  0.27354701  0.01900571     0.33300
H1564       H  0.65003867  0.26366831  0.93109375     0.44100
H1565       H  0.55564350  0.27383553  0.90950822     0.37700
H1566       H  0.58730153  0.20535887  0.95489938     0.34200
H1567       H  0.67798060  0.27647401  0.00494151     0.25900
H1568       H  0.63772086  0.19290410  0.90290497     0.31900
H1569       H  0.55256976  0.20436648  0.87994138     0.37800
H1570       H  0.61645730  0.31251265  0.99598109     0.32200
H1571       H  0.55035782  0.31431511  0.99874846     0.31100
H1572       H  0.51886030  0.29500469  0.97003978     0.32800
H1573       H  0.52030949  0.25528801  0.91335371     0.31800
H1574       H  0.64955928  0.30389192  0.94820104     0.35800
H1575       H  0.61146492  0.29925409  0.85831990     0.28500
H1576       H  0.57876239  0.20623406  0.04471381     0.32700
H1577       H  0.52586064  0.20399953  0.92471134     0.35600
H1578       H  0.57139904  0.30591941  0.01577141     0.28200
H1579       H  0.63153082  0.30425230  0.87974150     0.41100
H1580       H  0.67478149  0.22963533  0.95672208     0.31100
H1581       H  0.67463909  0.25494267  0.99495261     0.38700
H1582       H  0.51648221  0.24393987  0.94168030     0.30600
H1583       H  0.61676231  0.18695428  0.92220430     0.30700
H1584       H  0.56452426  0.19894658  0.01830169     0.30900
Zr1585     Zr  0.08812990  0.03070384  0.78476722     2.17500
O1586       O  0.06617224  0.05534217  0.75903049    -0.51400
O1587       O  0.10865099  0.02189199  0.74188542    -0.74600
O1588       O  0.10880893  0.06176556  0.78003677    -0.81400
O1589       O  0.04149045  0.99134717  0.77741857    -0.83200
O1590       O  0.13780591  0.06226976  0.81260437    -0.78800
O1591       O  0.05232281  0.02105149  0.76056076    -0.90400
O1592       O  0.13954644  0.00332134  0.75467361    -0.76400
O1593       O  0.12652305  0.02561512  0.80197422    -0.85900
O1594       O  0.09424608  0.99633734  0.78502997    -0.85600
O1595       O  0.08888145  0.04531912  0.83099735    -0.72300
O1596       O  0.05937378  0.01747635  0.81587224    -0.84500
Zr1597     Zr  0.10462690  0.99231229  0.88072287     2.26400
Zr1598     Zr  0.12718018  0.03910824  0.84852835     2.06300
Zr1599     Zr  0.06604102  0.98322413  0.81697521     2.10000
Zr1600     Zr  0.13251860  0.99153368  0.80246078     1.78800
O1601       O  0.02588023  0.97800417  0.83147718    -0.93300
O1602       O  0.17379775  0.99965282  0.80088952    -0.41100
O1603       O  0.10443247  0.97780689  0.83434706    -0.77700
O1604       O  0.13415920  0.00480526  0.84916912    -0.96400
O1605       O  0.09863794  0.02657299  0.88045302    -0.89700
O1606       O  0.06633528  0.99698123  0.86340486    -0.92500
C1607       C  0.12770031  0.01302392  0.73654176     1.01200
C1608       C  0.03904380  0.00595069  0.76089756     1.14100
C1609       C  0.12713043  0.06922560  0.79120268     1.04900
O1610       O  0.16810845  0.04810657  0.84724791    -0.94700
O1611       O  0.14921801  0.03263293  0.89106259    -0.90400
O1612       O  0.13882389  0.00251480  0.90652773    -0.83600
C1613       C  0.15175029  0.01770630  0.90699246     1.11600
O1614       O  0.03569706  0.05571256  0.84027427    -0.96700
Zr1615     Zr  0.06051224  0.03128120  0.86217139     1.88900
O1616       O  0.08057279  0.99915054  0.92243885    -0.73300
O1617       O  0.11842876  0.06967949  0.87234260    -0.52600
O1618       O  0.06278286  0.06171206  0.88847099    -0.97300
O1619       O  0.01965644  0.02193852  0.86365647    -0.54500
O1620       O  0.05414879  0.02243229  0.91126650    -0.73800
C1621       C  0.06343433  0.01038538  0.92860481     0.98500
O1622       O  0.12729781  0.97059384  0.91083858    -0.62700
O1623       O  0.06589632  0.95574307  0.78434471    -0.57500
O1624       O  0.08923095  0.95935767  0.88291721    -0.94100
O1625       O  0.06817903  0.95304924  0.84329556    -0.92600
O1626       O  0.13029063  0.96257662  0.77297202    -0.92900
O1627       O  0.15489640  0.96388594  0.81956444    -0.91700
C1628       C  0.07722157  0.94808338  0.86696962     1.17400
H1629       H  0.09238743  0.99083106  0.76638833     0.33300
H1630       H  0.14957322  0.00205784  0.85613374     0.44100
H1631       H  0.05509615  0.99052264  0.87537408     0.37700
H1632       H  0.08611044  0.05915194  0.82938775     0.34200
H1633       H  0.17428223  0.01388857  0.79775337     0.25900
H1634       H  0.13383265  0.07566797  0.87578346     0.31900
H1635       H  0.07672775  0.06037724  0.90055250     0.37800
H1636       H  0.11648182  0.95547223  0.78004255     0.32200
H1637       H  0.04925891  0.95261669  0.78148397     0.31100
H1638       H  0.02658913  0.96864355  0.84735682     0.32800
H1639       H  0.01922776  0.00947837  0.87413983     0.31800
H1640       H  0.14683998  0.95972633  0.83707146     0.35800
H1641       H  0.11638874  0.96565112  0.92537912     0.28500
H1642       H  0.07649530  0.05995340  0.74364905     0.32700
H1643       H  0.02644626  0.06139290  0.85585920     0.35600
H1644       H  0.07108642  0.96106482  0.76593711     0.28200
H1645       H  0.13123513  0.95915717  0.89904392     0.41100
H1646       H  0.17583393  0.03717881  0.83741572     0.31100
H1647       H  0.17956871  0.99788448  0.82043878     0.38700
H1648       H  0.01583018  0.01831983  0.84392116     0.30600
H1649       H  0.11130625  0.07806674  0.85771560     0.30700
H1650       H  0.06473529  0.06650747  0.77215548     0.30900
Zr1651     Zr  0.08688972  0.73456408  0.00201783     2.17500
O1652       O  0.06251608  0.71051029  0.02578708    -0.51400
O1653       O  0.10732080  0.74370999  0.04508189    -0.74600
O1654       O  0.10669425  0.70316066  0.00748568    -0.81400
O1655       O  0.04125582  0.77399774  0.01080512    -0.83200
O1656       O  0.13244932  0.70026010  0.97121377    -0.78800
O1657       O  0.05196165  0.74412231  0.02706050    -0.90400
O1658       O  0.13824148  0.76226029  0.03200499    -0.76400
O1659       O  0.12527556  0.73956626  0.98468060    -0.85900
O1660       O  0.09279730  0.76900592  0.00164826    -0.85600
O1661       O  0.08737361  0.72002245  0.95581941    -0.72300
O1662       O  0.05803664  0.74788803  0.97109009    -0.84500
Zr1663     Zr  0.10321071  0.77322088  0.90584639     2.26400
Zr1664     Zr  0.12556160  0.72625101  0.93793098     2.06300
Zr1665     Zr  0.06471071  0.78226647  0.96983321     2.10000
Zr1666     Zr  0.13106002  0.77376422  0.98424310     1.78800
O1667       O  0.02505755  0.78767730  0.95366262    -0.93300
O1668       O  0.17234568  0.76596349  0.98506947    -0.41100
O1669       O  0.10317395  0.78761756  0.95233784    -0.77700
O1670       O  0.13234739  0.76059140  0.93756170    -0.96400
O1671       O  0.09710709  0.73896363  0.90615216    -0.89700
O1672       O  0.06486391  0.76844543  0.92338693    -0.92500
C1673       C  0.12634433  0.75276763  0.05035559     1.01200
C1674       C  0.03895682  0.75924635  0.02724387     1.14100
C1675       C  0.12308322  0.69430785  0.99421929     1.04900
O1676       O  0.16632619  0.71732699  0.94195563    -0.94700
O1677       O  0.14936191  0.73343467  0.89702103    -0.90400
O1678       O  0.13740986  0.76263747  0.87971717    -0.83600
C1679       C  0.15118827  0.74795442  0.88016978     1.11600
O1680       O  0.03459427  0.70732786  0.94066726    -0.96700
Zr1681     Zr  0.05912339  0.73408356  0.92473323     1.88900
O1682       O  0.07921451  0.76607226  0.86415893    -0.73300
O1683       O  0.11720863  0.69799211  0.90857346    -0.52600
O1684       O  0.06274219  0.70458137  0.89656437    -0.97300
O1685       O  0.01798838  0.74236387  0.92553575    -0.54500
O1686       O  0.05216208  0.74342064  0.87627220    -0.73800
C1687       C  0.06166154  0.75506574  0.85857720     0.98500
O1688       O  0.12664035  0.79575228  0.87777949    -0.62700
O1689       O  0.06388223  0.81061597  0.00088648    -0.57500
O1690       O  0.08714444  0.80595391  0.90291710    -0.94100
O1691       O  0.06829585  0.81271326  0.94399222    -0.92600
O1692       O  0.12645828  0.80250963  0.01379644    -0.92900
O1693       O  0.15622262  0.79998472  0.96774964    -0.91700
C1694       C  0.07637180  0.81751945  0.91967282     1.17400
H1695       H  0.09092118  0.77458147  0.02024570     0.33300
H1696       H  0.14779231  0.76341052  0.93072126     0.44100
H1697       H  0.05354055  0.77481610  0.91151499     0.37700
H1698       H  0.08462174  0.70614085  0.95726328     0.34200
H1699       H  0.17837421  0.77230612  0.00239253     0.25900
H1700       H  0.13252344  0.69175636  0.90574327     0.31900
H1701       H  0.07396203  0.70790530  0.88142629     0.37800
H1702       H  0.11566719  0.81094834  0.00309447     0.32200
H1703       H  0.04737526  0.81461786  0.00149398     0.31100
H1704       H  0.01917835  0.79840922  0.96563053     0.32800
H1705       H  0.01683261  0.75469999  0.91483015     0.31800
H1706       H  0.16270711  0.79531319  0.94957554     0.35800
H1707       H  0.11617744  0.80101160  0.86303163     0.28500
H1708       H  0.07213472  0.70492243  0.04110830     0.32700
H1709       H  0.03978633  0.70466751  0.96024795     0.35600
H1710       H  0.06713935  0.80558124  0.02009249     0.28200
H1711       H  0.13017974  0.80689434  0.89036330     0.41100
H1712       H  0.17458469  0.72978130  0.94520627     0.31100
H1713       H  0.17294614  0.75186913  0.98929913     0.38700
H1714       H  0.01478437  0.74608222  0.94539047     0.30600
H1715       H  0.10865111  0.68891125  0.92107192     0.30700
H1716       H  0.06050105  0.69984171  0.01191854     0.30900
Zr1717     Zr  0.21893515  0.03036365  0.50055414     2.17500
O1718       O  0.24139035  0.05429471  0.52727868    -0.51400
O1719       O  0.19768363  0.02334959  0.54368514    -0.74600
O1720       O  0.19991121  0.06214589  0.50280181    -0.81400
O1721       O  0.26482622  0.99122247  0.51045664    -0.83200
O1722       O  0.16952093  0.06035765  0.47235344    -0.78800
O1723       O  0.25458473  0.02162298  0.52489019    -0.90400
O1724       O  0.16797071  0.00290802  0.53259188    -0.76400
O1725       O  0.18049196  0.02421778  0.48426487    -0.85900
O1726       O  0.21321169  0.99590508  0.50242491    -0.85600
O1727       O  0.21773570  0.04391545  0.45366055    -0.72300
O1728       O  0.24774987  0.01647510  0.47006013    -0.84500
Zr1729     Zr  0.20204321  0.98912185  0.40677119     2.26400
Zr1730     Zr  0.17942850  0.03643323  0.43698422     2.06300
Zr1731     Zr  0.24097625  0.98204808  0.47060300     2.10000
Zr1732     Zr  0.17500345  0.99004414  0.48560481     1.78800
O1733       O  0.28034619  0.97575286  0.45429969    -0.93300
O1734       O  0.13366009  0.99753726  0.48700259    -0.41100
O1735       O  0.20258011  0.97575334  0.45379925    -0.77700
O1736       O  0.17289768  0.00204096  0.43832588    -0.96400
O1737       O  0.20784651  0.02346580  0.40540319    -0.89700
O1738       O  0.24047915  0.99484101  0.42354372    -0.92500
C1739       C  0.17919777  0.01382768  0.54980878     1.01200
C1740       C  0.26750847  0.00644248  0.52573582     1.14100
C1741       C  0.18090598  0.06864569  0.49225271     1.04900
O1742       O  0.13917425  0.04721449  0.43790370    -0.94700
O1743       O  0.15566645  0.02763679  0.39659087    -0.90400
O1744       O  0.16666896  0.99764002  0.38140792    -0.83600
C1745       C  0.15321772  0.01250470  0.38097958     1.11600
O1746       O  0.27157904  0.05504009  0.44041937    -0.96700
Zr1747     Zr  0.24602525  0.02927075  0.42313036     1.88900
O1748       O  0.22442622  0.99650215  0.36406817    -0.73300
O1749       O  0.18931831  0.06497021  0.40892462    -0.52600
O1750       O  0.24320936  0.05910783  0.39551678    -0.97300
O1751       O  0.28702545  0.02050827  0.42061157    -0.54500
O1752       O  0.25112710  0.01985181  0.37438979    -0.73800
C1753       C  0.24137785  0.00783663  0.35743909     0.98500
O1754       O  0.18015345  0.96551467  0.37877242    -0.62700
O1755       O  0.24232470  0.95472895  0.50350591    -0.57500
O1756       O  0.21940331  0.95669432  0.40514606    -0.94100
O1757       O  0.23760506  0.95082357  0.44686774    -0.92600
O1758       O  0.18099641  0.96074360  0.51362369    -0.92900
O1759       O  0.14933515  0.96322926  0.47290564    -0.91700
C1760       C  0.23004883  0.94549439  0.42254208     1.17400
H1761       H  0.21530715  0.99095455  0.52135135     0.33300
H1762       H  0.15736263  0.99887691  0.43210831     0.44100
H1763       H  0.25180823  0.98831367  0.41178524     0.37700
H1764       H  0.22021784  0.05788154  0.45416184     0.34200
H1765       H  0.12791443  0.99140027  0.50463077     0.25900
H1766       H  0.17685840  0.06579216  0.39454576     0.31900
H1767       H  0.23010310  0.05686483  0.38236408     0.37800
H1768       H  0.17663579  0.96440867  0.53315743     0.32200
H1769       H  0.25877700  0.95368862  0.50941386     0.31100
H1770       H  0.28448153  0.96312798  0.46300522     0.32800
H1771       H  0.28779878  0.00944561  0.40724649     0.31800
H1772       H  0.15236106  0.96100091  0.45254658     0.35800
H1773       H  0.19112639  0.96036050  0.36449038     0.28500
H1774       H  0.23115653  0.05847616  0.54297699     0.32700
H1775       H  0.28201858  0.05832610  0.42444737     0.35600
H1776       H  0.23401827  0.95919850  0.52063674     0.28200
H1777       H  0.17679479  0.95445805  0.39158786     0.41100
H1778       H  0.13049441  0.03611540  0.44613387     0.31100
H1779       H  0.13297432  0.01168356  0.49085648     0.38700
H1780       H  0.29057263  0.01473847  0.43929793     0.30600
H1781       H  0.18646863  0.07615102  0.42164693     0.30700
H1782       H  0.24289176  0.06583066  0.51485772     0.30900
Zr1783     Zr  0.21910459  0.73145995  0.28524510     2.17500
O1784       O  0.24276950  0.70711856  0.26134676    -0.51400
O1785       O  0.19849695  0.74008245  0.24208362    -0.74600
O1786       O  0.19796899  0.70055586  0.28009222    -0.81400
O1787       O  0.26525150  0.77036216  0.27483150    -0.83200
O1788       O  0.17181848  0.69886379  0.31609814    -0.78800
O1789       O  0.25465164  0.74001743  0.26032768    -0.90400
O1790       O  0.16871243  0.75998003  0.25457582    -0.76400
O1791       O  0.18102035  0.73686671  0.30320501    -0.85900
O1792       O  0.21333578  0.76590824  0.28446056    -0.85600
O1793       O  0.21906343  0.71743775  0.33190124    -0.72300
O1794       O  0.24836735  0.74523882  0.31530374    -0.84500
Zr1795     Zr  0.20378344  0.77129243  0.38057666     2.26400
Zr1796     Zr  0.18109372  0.72397750  0.35017051     2.06300
Zr1797     Zr  0.24182597  0.77957309  0.31548963     2.10000
Zr1798     Zr  0.17541118  0.77106139  0.30269609     1.78800
O1799       O  0.28204475  0.78589747  0.32870328    -0.93300
O1800       O  0.13427877  0.76269453  0.30057604    -0.41100
O1801       O  0.20364904  0.78521379  0.33383276    -0.77700
O1802       O  0.17422680  0.75833614  0.34967659    -0.96400
O1803       O  0.20998693  0.73704776  0.38115458    -0.89700
O1804       O  0.24198481  0.76647114  0.36246803    -0.92500
C1805       C  0.17998139  0.74972048  0.23657321     1.01200
C1806       C  0.26769919  0.75518090  0.25931564     1.14100
C1807       C  0.18086236  0.69246884  0.29315445     1.04900
O1808       O  0.14034506  0.71442296  0.35044868    -0.94700
O1809       O  0.15803163  0.73171328  0.39145578    -0.90400
O1810       O  0.16927725  0.76160502  0.40695805    -0.83600
C1811       C  0.15591537  0.74662698  0.40750590     1.11600
O1812       O  0.27371143  0.70696151  0.34421667    -0.96700
Zr1813     Zr  0.24780931  0.73213348  0.36200595     1.88900
O1814       O  0.22720225  0.76419020  0.42239070    -0.73300
O1815       O  0.19113136  0.69548824  0.37823228    -0.52600
O1816       O  0.24602564  0.70226143  0.38964011    -0.97300
O1817       O  0.28868347  0.74158093  0.36337059    -0.54500
O1818       O  0.25410054  0.74154466  0.41045893    -0.73800
C1819       C  0.24450908  0.75312399  0.42810463     0.98500
O1820       O  0.18231989  0.79352261  0.41118592    -0.62700
O1821       O  0.24112261  0.80677873  0.28236208    -0.57500
O1822       O  0.21957066  0.80425485  0.38172985    -0.94100
O1823       O  0.23962917  0.81021074  0.34120659    -0.92600
O1824       O  0.18021510  0.80169730  0.27743729    -0.92900
O1825       O  0.14893370  0.79643098  0.31838762    -0.91700
C1826       C  0.23107839  0.81545747  0.36511687     1.17400
H1827       H  0.21506771  0.77122769  0.26569617     0.33300
H1828       H  0.15880372  0.76124179  0.35650143     0.44100
H1829       H  0.25335623  0.77308965  0.37403658     0.37700
H1830       H  0.22162464  0.70353771  0.33083654     0.34200
H1831       H  0.12879379  0.76801411  0.28229968     0.25900
H1832       H  0.18501661  0.69832871  0.39736911     0.31900
H1833       H  0.23586297  0.70535770  0.40592340     0.37800
H1834       H  0.18344542  0.79796010  0.25760873     0.32200
H1835       H  0.25666242  0.81286957  0.28415330     0.31100
H1836       H  0.29076542  0.77440917  0.32189986     0.32800
H1837       H  0.29559832  0.73333225  0.37832049     0.31800
H1838       H  0.15480594  0.80024760  0.33727885     0.35800
H1839       H  0.19367166  0.79831703  0.42531966     0.28500
H1840       H  0.23354032  0.70287721  0.24478125     0.32700
H1841       H  0.26650734  0.70254583  0.32631425     0.35600
H1842       H  0.24108855  0.80090805  0.26323954     0.28200
H1843       H  0.17837848  0.80498106  0.39944608     0.41100
H1844       H  0.13336530  0.72161507  0.33443977     0.31100
H1845       H  0.13396341  0.74841306  0.29790118     0.38700
H1846       H  0.28892050  0.75484934  0.37149456     0.30600
H1847       H  0.18091675  0.68501330  0.37096883     0.30700
H1848       H  0.24301571  0.69574153  0.27418692     0.30900
Zr1849     Zr  0.85351423  0.23776475  0.65643181     2.17500
O1850       O  0.87386354  0.21511598  0.62534377    -0.51400
O1851       O  0.82986654  0.24524787  0.61440891    -0.74600
O1852       O  0.83644116  0.20527005  0.65532268    -0.81400
O1853       O  0.89967880  0.27700013  0.64545749    -0.83200
O1854       O  0.81614358  0.19991058  0.69581192    -0.78800
O1855       O  0.88968375  0.24621582  0.63268583    -0.90400
O1856       O  0.80317787  0.26804465  0.62644013    -0.76400
O1857       O  0.81572988  0.24263956  0.67548666    -0.85900
O1858       O  0.84747457  0.27201380  0.65567752    -0.85600
O1859       O  0.85531243  0.22427469  0.70361557    -0.72300
O1860       O  0.88329959  0.25117631  0.68643417    -0.84500
Zr1861     Zr  0.83882593  0.27814222  0.75146191     2.26400
Zr1862     Zr  0.81728487  0.22982650  0.72260924     2.06300
Zr1863     Zr  0.87653358  0.28540038  0.68612185     2.10000
Zr1864     Zr  0.80983197  0.27697903  0.67505690     1.78800
O1865       O  0.91780708  0.29255205  0.69093273    -0.93300
O1866       O  0.76893138  0.26821738  0.67026597    -0.41100
O1867       O  0.83861070  0.29187786  0.70471970    -0.77700
O1868       O  0.80942461  0.26402257  0.72177356    -0.96400
O1869       O  0.84592098  0.24396711  0.75290342    -0.89700
O1870       O  0.87687591  0.27299136  0.73323529    -0.92500
C1871       C  0.81254754  0.25640742  0.60870415     1.01200
C1872       C  0.90252473  0.26146166  0.63096281     1.14100
C1873       C  0.82442169  0.19448190  0.67195900     1.04900
O1874       O  0.77624254  0.22409973  0.71331578    -0.94700
O1875       O  0.79639282  0.23679126  0.76587498    -0.90400
O1876       O  0.80498652  0.26792039  0.77876416    -0.83600
C1877       C  0.79323656  0.25207121  0.78096606     1.11600
O1878       O  0.91084861  0.21438752  0.71723078    -0.96700
Zr1879     Zr  0.88373680  0.23908506  0.73403011     1.88900
O1880       O  0.86031529  0.27043816  0.79406913    -0.73300
O1881       O  0.82125522  0.20197745  0.75419796    -0.52600
O1882       O  0.87980285  0.20963042  0.76237624    -0.97300
O1883       O  0.92441261  0.24911928  0.73488855    -0.54500
O1884       O  0.89048991  0.25078343  0.78210051    -0.73800
C1885       C  0.87908988  0.26127467  0.79977700     0.98500
O1886       O  0.81649075  0.30300466  0.77623279    -0.62700
O1887       O  0.86938668  0.31322475  0.65554139    -0.57500
O1888       O  0.85854992  0.30972688  0.75449480    -0.94100
O1889       O  0.88383526  0.31226619  0.71766862    -0.92600
O1890       O  0.81361569  0.30785820  0.65027233    -0.92900
O1891       O  0.78254717  0.30027177  0.69503809    -0.91700
C1892       C  0.87474797  0.31843597  0.74067632     1.17400
H1893       H  0.84890720  0.27734951  0.63683371     0.33300
H1894       H  0.79402181  0.26654668  0.72894343     0.44100
H1895       H  0.88842864  0.27959717  0.74454204     0.37700
H1896       H  0.85881170  0.21057482  0.70289841     0.34200
H1897       H  0.76326204  0.27586746  0.65391899     0.25900
H1898       H  0.80746591  0.19373649  0.75040013     0.31900
H1899       H  0.89182223  0.21084023  0.77725833     0.37800
H1900       H  0.79952253  0.30868017  0.63833334     0.32200
H1901       H  0.86059704  0.32247098  0.66748182     0.31100
H1902       H  0.92011269  0.30508315  0.68097350     0.32800
H1903       H  0.92482493  0.26120222  0.74626997     0.31800
H1904       H  0.79004288  0.30479776  0.71270758     0.35800
H1905       H  0.82666729  0.30781145  0.79162621     0.28500
H1906       H  0.86204638  0.20999883  0.61203900     0.32700
H1907       H  0.91999036  0.21041304  0.73399629     0.35600
H1908       H  0.88482654  0.31938254  0.65310938     0.28200
H1909       H  0.81508423  0.31402465  0.76284785     0.41100
H1910       H  0.76875239  0.23688819  0.71632547     0.31100
H1911       H  0.76898095  0.25458733  0.66348439     0.38700
H1912       H  0.92772197  0.25348109  0.71533541     0.30600
H1913       H  0.83453812  0.19445365  0.74665881     0.30700
H1914       H  0.87826328  0.20390639  0.63734824     0.30900
Zr1915     Zr  0.85325945  0.02019536  0.63203427     2.17500
O1916       O  0.87592324  0.04217489  0.66187737    -0.51400
O1917       O  0.82969746  0.01411620  0.67449968    -0.74600
O1918       O  0.83758990  0.05331776  0.63370073    -0.81400
O1919       O  0.89960195  0.98040770  0.63930765    -0.83200
O1920       O  0.81717101  0.05925991  0.59348545    -0.78800
O1921       O  0.88984677  0.01077900  0.65416290    -0.90400
O1922       O  0.80146440  0.99231979  0.66326755    -0.76400
O1923       O  0.81491563  0.01677292  0.61400073    -0.85900
O1924       O  0.84472757  0.98617130  0.63377304    -0.85600
O1925       O  0.85497660  0.03333826  0.58466050    -0.72300
O1926       O  0.88119932  0.00473397  0.60158227    -0.84500
Zr1927     Zr  0.83430440  0.97989861  0.53733910     2.26400
Zr1928     Zr  0.81628988  0.02917888  0.56670398     2.06300
Zr1929     Zr  0.87195515  0.97084674  0.60277622     2.10000
Zr1930     Zr  0.80660763  0.98278661  0.61480205     1.78800
O1931       O  0.90975972  0.95504068  0.60486692    -0.93300
O1932       O  0.76669726  0.99437415  0.61831953    -0.41100
O1933       O  0.83349495  0.96623224  0.58434642    -0.77700
O1934       O  0.80655383  0.99529110  0.56798890    -0.96400
O1935       O  0.84358131  0.01372456  0.53591553    -0.89700
O1936       O  0.87288720  0.98320827  0.55532696    -0.92500
C1937       C  0.81174745  0.00370646  0.68056942     1.01200
C1938       C  0.90317630  0.99581029  0.65408482     1.14100
C1939       C  0.82569198  0.06443744  0.61739316     1.04900
O1940       O  0.77625632  0.03728831  0.57815402    -0.94700
O1941       O  0.79206992  0.02177783  0.52614401    -0.90400
O1942       O  0.79979344  0.99086679  0.51158024    -0.83600
C1943       C  0.78796317  0.00673344  0.51082548     1.11600
O1944       O  0.91096853  0.04017488  0.57037170    -0.96700
Zr1945     Zr  0.88189952  0.01683335  0.55410677     1.88900
O1946       O  0.85534137  0.98741118  0.49391083    -0.73300
O1947       O  0.82055068  0.05563820  0.53272996    -0.52600
O1948       O  0.87957112  0.04659820  0.52627598    -0.97300
O1949       O  0.92185662  0.00504707  0.55266071    -0.54500
O1950       O  0.88672007  0.00594588  0.50535613    -0.73800
C1951       C  0.87428176  0.99632979  0.48763860     0.98500
O1952       O  0.81006652  0.95665874  0.51173290    -0.62700
O1953       O  0.85761588  0.94505926  0.63356112    -0.57500
O1954       O  0.85186581  0.94750492  0.53387883    -0.94100
O1955       O  0.87834631  0.94470748  0.56936280    -0.92600
O1956       O  0.80739915  0.95184519  0.63973521    -0.92900
O1957       O  0.77590868  0.96127036  0.59800997    -0.91700
C1958       C  0.86834885  0.93861441  0.54683826     1.17400
H1959       H  0.84599252  0.98099933  0.65268903     0.33300
H1960       H  0.79081922  0.99324025  0.56164887     0.44100
H1961       H  0.88391749  0.97628328  0.54371650     0.37700
H1962       H  0.85930277  0.04689268  0.58508535     0.34200
H1963       H  0.76068841  0.98887112  0.63625625     0.25900
H1964       H  0.80705269  0.06421963  0.53621425     0.31900
H1965       H  0.87008253  0.04310207  0.50955671     0.37800
H1966       H  0.79329752  0.95197475  0.65173450     0.32200
H1967       H  0.86107304  0.93286343  0.62325417     0.31100
H1968       H  0.90720417  0.94312274  0.61623908     0.32800
H1969       H  0.92126453  0.99273900  0.54181703     0.31800
H1970       H  0.78316105  0.95378518  0.58246737     0.35800
H1971       H  0.82006473  0.95113966  0.49669999     0.28500
H1972       H  0.86482738  0.04785106  0.67558066     0.32700
H1973       H  0.92002496  0.04380499  0.55334730     0.35600
H1974       H  0.86845280  0.94502392  0.64981632     0.28200
H1975       H  0.80723088  0.94580564  0.52507871     0.41100
H1976       H  0.77312256  0.04938835  0.56746649     0.31100
H1977       H  0.76808329  0.00850417  0.62201969     0.38700
H1978       H  0.92525376  0.00095413  0.57231171     0.30600
H1979       H  0.83412239  0.06322276  0.53941416     0.30700
H1980       H  0.88062315  0.05311356  0.64947486     0.30900
Zr1981     Zr  0.95482778  0.23995126  0.12915848     2.17500
O1982       O  0.93375490  0.21843839  0.16133652    -0.51400
O1983       O  0.97847826  0.24603709  0.17125283    -0.74600
O1984       O  0.97044023  0.20670563  0.12974315    -0.81400
O1985       O  0.90825210  0.27901494  0.13744363    -0.83200
O1986       O  0.99084501  0.20095457  0.08951496    -0.78800
O1987       O  0.91807695  0.24840809  0.15122952    -0.90400
O1988       O  0.00815233  0.26614130  0.15898741    -0.76400
O1989       O  0.99297458  0.24389532  0.11096502    -0.85900
O1990       O  0.96274784  0.27412504  0.13108648    -0.85600
O1991       O  0.95249407  0.22705231  0.08183322    -0.72300
O1992       O  0.92643579  0.25540678  0.09942499    -0.84500
Zr1993     Zr  0.97285136  0.28110226  0.03526163     2.26400
Zr1994     Zr  0.99096332  0.23141338  0.06370652     2.06300
Zr1995     Zr  0.93495467  0.28941022  0.10066190     2.10000
Zr1996     Zr  0.00075342  0.27800699  0.11204317     1.78800
O1997       O  0.89521247  0.30127593  0.09691103    -0.93300
O1998       O  0.04151346  0.26857664  0.11084298    -0.41100
O1999       O  0.97329044  0.29431876  0.08235160    -0.77700
O2000       O  0.00087773  0.26538930  0.06507817    -0.96400
O2001       O  0.96363478  0.24723570  0.03357840    -0.89700
O2002       O  0.93438873  0.27741717  0.05329806    -0.92500
C2003       C  0.99730507  0.25540800  0.17668059     1.01200
C2004       C  0.90481956  0.26338208  0.15170006     1.14100
C2005       C  0.98240060  0.19563955  0.11338013     1.04900
O2006       O  0.03066602  0.22145341  0.07384449    -0.94700
O2007       O  0.01364364  0.23816231  0.02183064    -0.90400
O2008       O  0.00496143  0.26874973  0.00653806    -0.83600
C2009       C  0.01672100  0.25286875  0.00555982     1.11600
O2010       O  0.89664585  0.22020991  0.06795037    -0.96700
Zr2011     Zr  0.92537549  0.24386776  0.05184350     1.88900
O2012       O  0.95129342  0.27490158  0.99196386    -0.73300
O2013       O  0.98283987  0.20531760  0.03023197    -0.52600
O2014       O  0.92395013  0.21461189  0.02280257    -0.97300
O2015       O  0.88631162  0.25756172  0.05287365    -0.54500
O2016       O  0.92066983  0.25542078  0.00349536    -0.73800
C2017       C  0.93242761  0.26579405  0.98597272     0.98500
O2018       O  0.99875753  0.30683441  0.01828679    -0.62700
O2019       O  0.94425081  0.31570079  0.13334751    -0.57500
O2020       O  0.95345670  0.31252814  0.02963772    -0.94100
O2021       O  0.93030596  0.31662456  0.06831478    -0.92600
O2022       O  0.99858824  0.30704121  0.14149058    -0.92900
O2023       O  0.02761217  0.30358437  0.09758161    -0.91700
C2024       C  0.93845384  0.32204001  0.04427641     1.17400
H2025       H  0.96158196  0.27915520  0.15011319     0.33300
H2026       H  0.01641984  0.26739937  0.05797064     0.44100
H2027       H  0.92325392  0.28441176  0.04194357     0.37700
H2028       H  0.94817524  0.21349859  0.08215924     0.34200
H2029       H  0.04853739  0.27484644  0.12766068     0.25900
H2030       H  0.99527832  0.19563443  0.03340192     0.31900
H2031       H  0.93418173  0.21745252  0.00647318     0.37800
H2032       H  0.01260258  0.30653135  0.15360638     0.32200
H2033       H  0.95748273  0.32256629  0.12440117     0.31100
H2034       H  0.89423866  0.31230473  0.11032632     0.32800
H2035       H  0.88569204  0.26684650  0.03688897     0.31800
H2036       H  0.02277182  0.30699073  0.07812156     0.35800
H2037       H  0.99643386  0.31790179  0.03138557     0.28500
H2038       H  0.94532221  0.21420553  0.17555089     0.32700
H2039       H  0.88475456  0.21960736  0.05283862     0.35600
H2040       H  0.93113258  0.32490979  0.13158407     0.28200
H2041       H  0.01467873  0.30236108  0.02275376     0.41100
H2042       H  0.04049432  0.23242782  0.06738657     0.31100
H2043       H  0.04144639  0.25452308  0.11542655     0.38700
H2044       H  0.88602080  0.26586019  0.06998285     0.30600
H2045       H  0.96856646  0.19896968  0.03746865     0.30700
H2046       H  0.92993739  0.20658552  0.15035586     0.30900
Zr2047     Zr  0.95319797  0.02328577  0.15728149     2.17500
O2048       O  0.93145309  0.04670767  0.12898086    -0.51400
O2049       O  0.97657185  0.01650788  0.11476314    -0.74600
O2050       O  0.97105380  0.05552389  0.15578103    -0.81400
O2051       O  0.90504040  0.98564659  0.14827083    -0.83200
O2052       O  0.99199912  0.06053031  0.19589156    -0.78800
O2053       O  0.91718634  0.01533811  0.13297604    -0.90400
O2054       O  0.00441384  0.99456636  0.12637574    -0.76400
O2055       O  0.99120367  0.01802724  0.17531033    -0.85900
O2056       O  0.95895802  0.98896215  0.15558954    -0.85600
O2057       O  0.95226530  0.03632329  0.20468373    -0.72300
O2058       O  0.92379247  0.00964929  0.18770158    -0.84500
Zr2059     Zr  0.96830959  0.98162457  0.25146261     2.26400
Zr2060     Zr  0.99043928  0.03030410  0.22274477     2.06300
Zr2061     Zr  0.93018163  0.97533222  0.18631360     2.10000
Zr2062     Zr  0.99681474  0.98370497  0.17427721     1.78800
O2063       O  0.88996135  0.96441586  0.18983976    -0.93300
O2064       O  0.03773557  0.99283566  0.17592674    -0.41100
O2065       O  0.96817231  0.96873813  0.20417524    -0.77700
O2066       O  0.99759063  0.99588592  0.22149513    -0.96400
O2067       O  0.96210344  0.01588504  0.25335573    -0.89700
O2068       O  0.93014356  0.98730897  0.23380224    -0.92500
C2069       C  0.99453395  0.00610483  0.10885824     1.01200
C2070       C  0.90312350  0.00083424  0.13273192     1.14100
C2071       C  0.98363518  0.06612649  0.17206831     1.04900
O2072       O  0.03144713  0.03657245  0.21383216    -0.94700
O2073       O  0.01227005  0.02258330  0.26491015    -0.90400
O2074       O  0.00203648  0.99204735  0.27905148    -0.83600
C2075       C  0.01465912  0.00747794  0.28053011     1.11600
O2076       O  0.89887922  0.04852449  0.22351481    -0.96700
Zr2077     Zr  0.92421019  0.02137691  0.23550405     1.88900
O2078       O  0.94731172  0.98930744  0.29473682    -0.73300
O2079       O  0.98606759  0.05673118  0.25667015    -0.52600
O2080       O  0.93077501  0.04995869  0.26499322    -0.97300
O2081       O  0.88311288  0.01273873  0.23383267    -0.54500
O2082       O  0.91739791  0.00940085  0.28346676    -0.73800
C2083       C  0.92887343  0.99886646  0.30097995     0.98500
O2084       O  0.98905314  0.95430652  0.27248131    -0.62700
O2085       O  0.93879925  0.94858193  0.15418094    -0.57500
O2086       O  0.94838419  0.95010614  0.25526296    -0.94100
O2087       O  0.92363535  0.94823735  0.21783476    -0.92600
O2088       O  0.99421606  0.95394083  0.14650476    -0.92900
O2089       O  0.02216748  0.95768577  0.19049632    -0.91700
C2090       C  0.93222657  0.94169742  0.24090794     1.17400
H2091       H  0.95738835  0.98391709  0.13658055     0.33300
H2092       H  0.01297278  0.99314556  0.22850674     0.44100
H2093       H  0.91848423  0.98079830  0.24506271     0.37700
H2094       H  0.94901707  0.05006860  0.20426310     0.34200
H2095       H  0.04410415  0.98886435  0.15735824     0.25900
H2096       H  0.00052161  0.06447458  0.25489076     0.31900
H2097       H  0.92388557  0.04676036  0.28361017     0.37800
H2098       H  0.00504335  0.95590023  0.13047611     0.32200
H2099       H  0.93297293  0.93679701  0.16394550     0.31100
H2100       H  0.88943747  0.95190426  0.17945857     0.32800
H2101       H  0.88004606  0.00559083  0.25162433     0.31800
H2102       H  0.02192443  0.95869395  0.21138617     0.35800
H2103       H  0.00515572  0.95528382  0.26522811     0.28500
H2104       H  0.94242230  0.05155237  0.11443851     0.32700
H2105       H  0.88896163  0.05057085  0.24037570     0.35600
H2106       H  0.92798412  0.95040777  0.13812388     0.28200
H2107       H  0.99021991  0.95728087  0.29292800     0.41100
H2108       H  0.03449267  0.04941801  0.22257178     0.31100
H2109       H  0.03777874  0.00722867  0.17533415     0.38700
H2110       H  0.88200718  0.00269717  0.21887647     0.30600
H2111       H  0.97379933  0.06517118  0.24868998     0.30700
H2112       H  0.92848451  0.05796556  0.14153808     0.30900
C2113       C  0.98931264  0.11106138  0.13740872     0.29700
C2114       C  0.98965487  0.12387164  0.11424439    -0.36700
C2115       C  0.98929538  0.14381558  0.12074854     0.15600
C2116       C  0.98819105  0.15068587  0.14814649     0.21500
C2117       C  0.98840604  0.13788352  0.17131245    -0.34800
C2118       C  0.98922000  0.11795641  0.16482479     0.15600
O2119       O  0.98802084  0.09188689  0.13621370    -0.26800
C2120       C  0.98766922  0.08640360  0.16323431     0.05300
C2121       C  0.98851853  0.10200738  0.18195636    -0.31700
O2122       O  0.98599379  0.16979997  0.14930309    -0.23500
C2123       C  0.98611953  0.17530858  0.12230125    -0.03500
C2124       C  0.98836986  0.15975743  0.10361031    -0.18000
H2125       H  0.98959263  0.11865092  0.09264803     0.20000
H2126       H  0.98740792  0.14307999  0.19288529     0.18400
H2127       H  0.98734368  0.10165546  0.20480263     0.18300
H2128       H  0.98814419  0.16009913  0.08072004     0.14200
C2129       C  0.89794603  0.99639637  0.36511037     0.29700
C2130       C  0.87830319  0.99513386  0.38273745    -0.36700
C2131       C  0.88261983  0.99505284  0.41201550     0.15600
C2132       C  0.90471019  0.99652573  0.42316553     0.21500
C2133       C  0.92434527  0.99740408  0.40556413    -0.34800
C2134       C  0.92006367  0.99708751  0.37633286     0.15600
O2135       O  0.89797657  0.99706614  0.33715543    -0.26800
C2136       C  0.92043905  0.99779566  0.33040090     0.05300
C2137       C  0.93495954  0.99773523  0.35392634    -0.31700
O2138       O  0.90471889  0.99710895  0.45108022    -0.23500
C2139       C  0.88236937  0.99563854  0.45802712    -0.03500
C2140       C  0.86781340  0.99417820  0.43456394    -0.18000
H2141       H  0.86087308  0.99437473  0.37422602     0.20000
H2142       H  0.94176014  0.99837297  0.41408035     0.18400
H2143       H  0.95374023  0.99852297  0.35440247     0.18300
H2144       H  0.84904240  0.99320831  0.43420278     0.14200
C2145       C  0.88830781  0.26558541  0.87273800     0.29700
C2146       C  0.88199584  0.26606979  0.90139579    -0.36700
C2147       C  0.90037439  0.26685660  0.92083260     0.15600
C2148       C  0.92338744  0.26765467  0.91266445     0.21500
C2149       C  0.92970281  0.26707415  0.88397691    -0.34800
C2150       C  0.91133191  0.26574938  0.86454443     0.15600
O2151       O  0.87396879  0.26419926  0.85108557    -0.26800
C2152       C  0.88798439  0.26304256  0.82876872     0.05300
C2153       C  0.91141956  0.26391899  0.83582657    -0.31700
O2154       O  0.93773515  0.26799061  0.93444216    -0.23500
C2155       C  0.92372246  0.26708145  0.95680960    -0.03500
C2156       C  0.90031031  0.26630986  0.94961577    -0.18000
H2157       H  0.86402638  0.26540526  0.90808490     0.20000
H2158       H  0.94769213  0.26714928  0.87731319     0.18400
H2159       H  0.92627847  0.26339443  0.82181166     0.18300
H2160       H  0.88546359  0.26523905  0.96359544     0.14200
C2161       C  0.82024672  0.14913623  0.63894028     0.29700
C2162       C  0.82017513  0.13599901  0.61628299    -0.36700
C2163       C  0.82015676  0.11622571  0.62354205     0.15600
C2164       C  0.82087043  0.10976038  0.65117573     0.21500
C2165       C  0.82044373  0.12292157  0.67388486    -0.34800
C2166       C  0.81980202  0.14271153  0.66661019     0.15600
O2167       O  0.82138705  0.16824780  0.63700357    -0.26800
C2168       C  0.82105585  0.17414082  0.66377264     0.05300
C2169       C  0.81993243  0.15892160  0.68311269    -0.31700
O2170       O  0.82257411  0.09063226  0.65293963    -0.23500
C2171       C  0.82241391  0.08480638  0.62606985    -0.03500
C2172       C  0.82071421  0.10009571  0.60693229    -0.18000
H2173       H  0.82049394  0.14085258  0.59450904     0.20000
H2174       H  0.82094744  0.11809546  0.69566551     0.18400
H2175       H  0.82043284  0.15970851  0.70597578     0.18300
H2176       H  0.82098943  0.09943189  0.58405919     0.14200
C2177       C  0.10261053  0.00075134  0.34377993     0.29700
C2178       C  0.08468209  0.98866848  0.33377669    -0.36700
C2179       C  0.06547784  0.99822097  0.32191046     0.15600
C2180       C  0.06424912  0.01822413  0.31969291     0.21500
C2181       C  0.08200070  0.03025065  0.32989826    -0.34800
C2182       C  0.10099477  0.02074889  0.34201032     0.15600
O2183       O  0.12187244  0.99508825  0.35643464    -0.26800
C2184       C  0.13255707  0.01171214  0.36291512     0.05300
C2185       C  0.12033651  0.02810957  0.35447903    -0.31700
O2186       O  0.04558383  0.02408728  0.30617382    -0.23500
C2187       C  0.03443868  0.00768561  0.29997184    -0.03500
C2188       C  0.04589174  0.99109181  0.30940205    -0.18000
H2189       H  0.08564058  0.97297115  0.33513465     0.20000
H2190       H  0.08112695  0.04594197  0.32832182     0.18400
H2191       H  0.12472250  0.04325091  0.35791884     0.18300
H2192       H  0.04127381  0.97601632  0.30579583     0.14200
C2193       C  0.23430036  0.86062403  0.39976658     0.29700
C2194       C  0.23337188  0.87352554  0.42280695    -0.36700
C2195       C  0.23437791  0.89343944  0.41619116     0.15600
C2196       C  0.23572028  0.90020934  0.38875492     0.21500
C2197       C  0.23715493  0.88730195  0.36577899    -0.34800
C2198       C  0.23657996  0.86739263  0.37242483     0.15600
O2199       O  0.23244736  0.84148049  0.40092997    -0.26800
C2200       C  0.23401876  0.83587723  0.37401677     0.05300
C2201       C  0.23675200  0.85138635  0.35537906    -0.31700
O2202       O  0.23472341  0.91938247  0.38728141    -0.23500
C2203       C  0.23320250  0.92500702  0.41417275    -0.03500
C2204       C  0.23308731  0.90948510  0.43309261    -0.18000
H2205       H  0.23152651  0.86840873  0.44434189     0.20000
H2206       H  0.23817923  0.89242634  0.34417029     0.18400
H2207       H  0.23764612  0.85095376  0.33251911     0.18300
H2208       H  0.23122045  0.90996083  0.45586496     0.14200
C2209       C  0.17072770  0.75052404  0.16339197     0.29700
C2210       C  0.17690246  0.75219370  0.13478683    -0.36700
C2211       C  0.15844868  0.75236403  0.11543338     0.15600
C2212       C  0.13549765  0.75068281  0.12358880     0.21500
C2213       C  0.12929118  0.74936597  0.15223738    -0.34800
C2214       C  0.14773815  0.74949006  0.17162603     0.15600
O2215       O  0.18516189  0.75021562  0.18505063    -0.26800
C2216       C  0.17121379  0.74929456  0.20744743     0.05300
C2217       C  0.14775990  0.74887054  0.20041114    -0.31700
O2218       O  0.12113217  0.75049038  0.10185127    -0.23500
C2219       C  0.13506379  0.75233380  0.07953477    -0.03500
C2220       C  0.15843488  0.75372424  0.08671623    -0.18000
H2221       H  0.19483834  0.75331644  0.12809294     0.20000
H2222       H  0.11134861  0.74833735  0.15893838     0.18400
H2223       H  0.13294802  0.74822046  0.21449759     0.18300
H2224       H  0.17324589  0.75512009  0.07274027     0.14200
C2225       C  0.03115178  0.01546447  0.99150351     0.29700
C2226       C  0.01352243  0.02298140  0.00896560    -0.36700
C2227       C  0.01221320  0.01533149  0.03649331     0.15600
C2228       C  0.02731293  0.00129020  0.04619551     0.21500
C2229       C  0.04495256  0.99374819  0.02871963    -0.34800
C2230       C  0.04620180  0.00135911  0.00114036     0.15600
O2231       O  0.03532780  0.02048577  0.96501776    -0.26800
C2232       C  0.05331431  0.00947965  0.95740851     0.05300
C2233       C  0.06080838  0.99725161  0.97909395    -0.31700
O2234       O  0.02302488  0.99626164  0.07266382    -0.23500
C2235       C  0.00488039  0.00716840  0.08013995    -0.03500
C2236       C  0.99739969  0.01931846  0.05838130    -0.18000
H2237       H  0.00160454  0.03401384  0.00155558     0.20000
H2238       H  0.05684718  0.98268808  0.03610834     0.18400
H2239       H  0.07485909  0.98681779  0.97861933     0.18300
H2240       H  0.98321064  0.02961988  0.05868861     0.14200
C2241       C  0.99133071  0.99307389  0.71916048     0.29700
C2242       C  0.97512103  0.98026854  0.70703790    -0.36700
C2243       C  0.95616106  0.98894229  0.69338413     0.15600
C2244       C  0.95328893  0.00884780  0.69196685     0.21500
C2245       C  0.96969407  0.02165804  0.70376482    -0.34800
C2246       C  0.98876466  0.01298914  0.71721026     0.15600
O2247       O  0.00965779  0.98808679  0.73411949    -0.26800
C2248       C  0.01919446  0.00499676  0.74150097     0.05300
C2249       C  0.00702043  0.02102904  0.73148803    -0.31700
O2250       O  0.93407968  0.01381173  0.67861751    -0.23500
C2251       C  0.92457748  0.99689099  0.67114691    -0.03500
C2252       C  0.93761530  0.98089684  0.67970965    -0.18000
H2253       H  0.97701429  0.96463616  0.70848437     0.20000
H2254       H  0.96760397  0.03728719  0.70277602     0.18400
H2255       H  0.01046573  0.03628405  0.73539264     0.18300
H2256       H  0.93395571  0.96561685  0.67632462     0.14200
C2257       C  0.17078947  0.01541248  0.62293607     0.29700
C2258       C  0.17741977  0.01530945  0.65147450    -0.36700
C2259       C  0.15924446  0.01468306  0.67118698     0.15600
C2260       C  0.13613628  0.01440311  0.66335185     0.21500
C2261       C  0.12951730  0.01418991  0.63481843    -0.34800
C2262       C  0.14769389  0.01461356  0.61511497     0.15600
O2263       O  0.18489838  0.01582698  0.60099616    -0.26800
C2264       C  0.17065142  0.01502962  0.57889693     0.05300
C2265       C  0.14731353  0.01420857  0.58635341    -0.31700
O2266       O  0.12201369  0.01408540  0.68527349    -0.23500
C2267       C  0.13626587  0.01384695  0.70739807    -0.03500
C2268       C  0.15962901  0.01418015  0.69996478    -0.18000
H2269       H  0.19547459  0.01560212  0.65784844     0.20000
H2270       H  0.11147054  0.01365366  0.62843875     0.18400
H2271       H  0.13233180  0.01336507  0.57256819     0.18300
H2272       H  0.17462673  0.01420873  0.71377184     0.14200
C2273       C  0.07187273  0.89760586  0.87350938     0.29700
C2274       C  0.07112257  0.87829358  0.86391206    -0.36700
C2275       C  0.07202753  0.86389161  0.88490416     0.15600
C2276       C  0.07313384  0.86821175  0.91339151     0.21500
C2277       C  0.07413603  0.88751604  0.92295405    -0.34800
C2278       C  0.07365057  0.90189628  0.90195441     0.15600
O2279       O  0.07209135  0.91331911  0.85753450    -0.26800
C2280       C  0.07433578  0.92782008  0.87596699     0.05300
C2281       C  0.07545584  0.92159696  0.90391500    -0.31700
O2282       O  0.07407314  0.85250218  0.92933985    -0.23500
C2283       C  0.07387049  0.83791447  0.91085035    -0.03500
C2284       C  0.07272821  0.84412367  0.88286082    -0.18000
H2285       H  0.07035096  0.87475162  0.84162625     0.20000
H2286       H  0.07563526  0.89106212  0.94518256     0.18400
H2287       H  0.07768472  0.93030766  0.92280308     0.18300
H2288       H  0.07269919  0.83534989  0.86384671     0.14200
C2289       C  0.74312169  0.26087681  0.82033956     0.29700
C2290       C  0.72386659  0.27171896  0.82934794    -0.36700
C2291       C  0.70581139  0.26103230  0.84187196     0.15600
C2292       C  0.70688040  0.24114817  0.84580887     0.21500
C2293       C  0.72608793  0.23034365  0.83684643    -0.34800
C2294       C  0.74391048  0.24094614  0.82386382     0.15600
O2295       O  0.76120793  0.26761138  0.80628047    -0.26800
C2296       C  0.77359706  0.25176209  0.80062483     0.05300
C2297       C  0.76367216  0.23476826  0.81106154    -0.31700
O2298       O  0.68843106  0.23416619  0.85875243    -0.23500
C2299       C  0.67518429  0.24971179  0.86281998    -0.03500
C2300       C  0.68503892  0.26685080  0.85263828    -0.18000
H2301       H  0.72282020  0.28729635  0.82625781     0.20000
H2302       H  0.72691255  0.21471372  0.83942437     0.18400
H2303       H  0.76954812  0.21994042  0.80827949     0.18300
H2304       H  0.67837678  0.28152898  0.85421514     0.14200
C2305       C  0.58620705  0.36400994  0.89514808     0.29700
C2306       C  0.59920153  0.38001087  0.88602620    -0.36700
C2307       C  0.58648092  0.39645137  0.87832085     0.15600
C2308       C  0.56251061  0.39711535  0.87879589     0.21500
C2309       C  0.54941877  0.38102927  0.88819328    -0.34800
C2310       C  0.56225933  0.36463204  0.89667336     0.15600
O2311       O  0.59477205  0.34723673  0.90334745    -0.26800
C2312       C  0.57619244  0.33697714  0.91080064     0.05300
C2313       C  0.55541238  0.34703997  0.90732831    -0.31700
O2314       O  0.55443102  0.41435257  0.87116379    -0.23500
C2315       C  0.57360105  0.42474644  0.86627681    -0.03500
C2316       C  0.59392977  0.41434518  0.87044443    -0.18000
H2317       H  0.61799813  0.37976445  0.88543732     0.20000
H2318       H  0.53064680  0.38139861  0.88933383     0.18400
H2319       H  0.53790881  0.34193647  0.91129331     0.18300
H2320       H  0.61167781  0.41943009  0.86850994     0.14200
C2321       C  0.76364519  0.26083948  0.49796727     0.29700
C2322       C  0.76388706  0.27006687  0.52448545    -0.36700
C2323       C  0.78016461  0.26303446  0.54413957     0.15600
C2324       C  0.79522191  0.24797171  0.53823407     0.21500
C2325       C  0.79499424  0.23876856  0.51172690    -0.34800
C2326       C  0.77872810  0.24579221  0.49209135     0.15600
O2327       O  0.74986959  0.26500108  0.47638131    -0.26800
C2328       C  0.75623216  0.25241213  0.45641023     0.05300
C2329       C  0.77413159  0.24016210  0.46509691    -0.31700
O2330       O  0.80884299  0.24363032  0.55986687    -0.23500
C2331       C  0.80240880  0.25608218  0.57995840    -0.03500
C2332       C  0.78465004  0.26849324  0.57126286    -0.18000
H2333       H  0.75216991  0.28186777  0.52949008     0.20000
H2334       H  0.80663857  0.22690856  0.50676634     0.18400
H2335       H  0.78259902  0.22876384  0.45314850     0.18300
H2336       H  0.77614408  0.27981838  0.58331840     0.14200
C2337       C  0.81728983  0.26679317  0.21684315     0.29700
C2338       C  0.83366131  0.27938405  0.20472129    -0.36700
C2339       C  0.85244865  0.27046065  0.19120930     0.15600
C2340       C  0.85512928  0.25052103  0.19001248     0.21500
C2341       C  0.83860728  0.23790629  0.20193822    -0.34800
C2342       C  0.81960193  0.24683716  0.21513588     0.15600
O2343       O  0.79893175  0.27205139  0.23147426    -0.26800
C2344       C  0.78910948  0.25528469  0.23889107     0.05300
C2345       C  0.80110530  0.23906230  0.22920665    -0.31700
O2346       O  0.87420066  0.24537128  0.17656076    -0.23500
C2347       C  0.88369755  0.26223808  0.16890038    -0.03500
C2348       C  0.87088803  0.27833072  0.17734189    -0.18000
H2349       H  0.83194933  0.29504189  0.20593104     0.20000
H2350       H  0.84048656  0.22225439  0.20107260     0.18400
H2351       H  0.79743080  0.22386433  0.23327418     0.18300
H2352       H  0.87460343  0.29357034  0.17365921     0.14200
C2353       C  0.65726104  0.24994858  0.11356686     0.29700
C2354       C  0.67669562  0.24734643  0.13103365    -0.36700
C2355       C  0.67241736  0.24747392  0.16022564     0.15600
C2356       C  0.65063248  0.25059861  0.17153677     0.21500
C2357       C  0.63110024  0.25290572  0.15406016    -0.34800
C2358       C  0.63528379  0.25216631  0.12481826     0.15600
O2359       O  0.65729225  0.25014631  0.08567236    -0.26800
C2360       C  0.63498962  0.25207762  0.07895758     0.05300
C2361       C  0.62045973  0.25329120  0.10240937    -0.31700
O2362       O  0.65087009  0.25110130  0.19944176    -0.23500
C2363       C  0.67300785  0.24782067  0.20603641    -0.03500
C2364       C  0.68715961  0.24528775  0.18249968    -0.18000
H2365       H  0.69394124  0.24525326  0.12245098     0.20000
H2366       H  0.61385922  0.25503049  0.16264847     0.18400
H2367       H  0.60176969  0.25498424  0.10280367     0.18300
H2368       H  0.70574257  0.24293979  0.18192342     0.14200
C2369       C  0.63078577  0.51307394  0.66019542     0.29700
C2370       C  0.62478435  0.51201835  0.63143446    -0.36700
C2371       C  0.64338578  0.51207406  0.61220436     0.15600
C2372       C  0.66628108  0.51348697  0.62066816     0.21500
C2373       C  0.67228209  0.51435453  0.64940156    -0.34800
C2374       C  0.65373108  0.51389856  0.66861818     0.15600
O2375       O  0.61626502  0.51287899  0.68182418    -0.26800
C2376       C  0.63015231  0.51329511  0.70432754     0.05300
C2377       C  0.65361135  0.51384163  0.69740080    -0.31700
O2378       O  0.68088049  0.51338201  0.59915980    -0.23500
C2379       C  0.66720437  0.51154484  0.57662072    -0.03500
C2380       C  0.64370880  0.51062960  0.58343937    -0.18000
H2381       H  0.60689425  0.51096927  0.62455353     0.20000
H2382       H  0.69018867  0.51507517  0.65630683     0.18400
H2383       H  0.66837740  0.51418190  0.71156810     0.18300
H2384       H  0.62905631  0.50922784  0.56923587     0.14200
C2385       C  0.73700491  0.39896468  0.38823946     0.29700
C2386       C  0.73945306  0.38619880  0.36519049    -0.36700
C2387       C  0.73971898  0.36624127  0.37168094     0.15600
C2388       C  0.73720042  0.35934284  0.39892415     0.21500
C2389       C  0.73532476  0.37211211  0.42201667    -0.34800
C2390       C  0.73555560  0.39205297  0.41558873     0.15600
O2391       O  0.73527374  0.41810452  0.38693210    -0.26800
C2392       C  0.73318285  0.42355767  0.41384463     0.05300
C2393       C  0.73342587  0.40796747  0.43262838    -0.31700
O2394       O  0.73582728  0.34018164  0.39995442    -0.23500
C2395       C  0.73800631  0.33463486  0.37309714    -0.03500
C2396       C  0.74071158  0.35024403  0.35456911    -0.18000
H2397       H  0.74059250  0.39144713  0.34365180     0.20000
H2398       H  0.73330991  0.36685360  0.44345624     0.18400
H2399       H  0.73141519  0.40829784  0.45538915     0.18300
H2400       H  0.74178341  0.34988006  0.33171687     0.14200
C2401       C  0.90097346  0.89835994  0.52625799     0.29700
C2402       C  0.92166258  0.88775664  0.52337514    -0.36700
C2403       C  0.91944955  0.86744099  0.52398164     0.15600
C2404       C  0.89826123  0.85826860  0.52737747     0.21500
C2405       C  0.87748413  0.86884746  0.52900218    -0.34800
C2406       C  0.87969286  0.88915074  0.52829069     0.15600
O2407       O  0.89949433  0.91720824  0.53095546    -0.26800
C2408       C  0.87694862  0.92020530  0.53530628     0.05300
C2409       C  0.86372130  0.90330783  0.53371398    -0.31700
O2410       O  0.90049048  0.83959512  0.53282349    -0.23500
C2411       C  0.92330933  0.83663165  0.53230137    -0.03500
C2412       C  0.93602561  0.85337174  0.52649755    -0.18000
H2413       H  0.93846739  0.89485142  0.52297667     0.20000
H2414       H  0.86095977  0.86178161  0.53287319     0.18400
H2415       H  0.84551006  0.90146996  0.53880334     0.18300
H2416       H  0.95467888  0.85530193  0.52746991     0.14200
C2417       C  0.02457926  0.76247664  0.74174654     0.29700
C2418       C  0.04215798  0.77041870  0.75884183    -0.36700
C2419       C  0.04350895  0.76322915  0.78653805     0.15600
C2420       C  0.02846812  0.74924885  0.79676911     0.21500
C2421       C  0.01077159  0.74134581  0.77969220    -0.34800
C2422       C  0.00951682  0.74846549  0.75185960     0.15600
O2423       O  0.02056476  0.76692670  0.71509706    -0.26800
C2424       C  0.00269867  0.75564055  0.70779925     0.05300
C2425       C  0.99505156  0.74380419  0.72987477    -0.31700
O2426       O  0.03297959  0.74456637  0.82325810    -0.23500
C2427       C  0.05116613  0.75565995  0.83011656    -0.03500
C2428       C  0.05847573  0.76758574  0.80804201    -0.18000
H2429       H  0.05409119  0.78134719  0.75098734     0.20000
H2430       H  0.99894646  0.73031746  0.78750187     0.18400
H2431       H  0.98101981  0.73329444  0.72969267     0.18300
H2432       H  0.07267963  0.77793601  0.80788035     0.14200
C2433       C  0.06663372  0.74253726  0.46837432     0.29700
C2434       C  0.08336612  0.72997975  0.45708433    -0.36700
C2435       C  0.10315599  0.73893449  0.44579997     0.15600
C2436       C  0.10628388  0.75885600  0.44568610     0.21500
C2437       C  0.08931451  0.77143384  0.45647555    -0.34800
C2438       C  0.06944186  0.76248886  0.46763722     0.15600
O2439       O  0.04768416  0.73724026  0.48186001    -0.26800
C2440       C  0.03800977  0.75399279  0.48942655     0.05300
C2441       C  0.05065670  0.77023313  0.48099205    -0.31700
O2442       O  0.12599474  0.76408761  0.43374668    -0.23500
C2443       C  0.13552742  0.74731727  0.42596648    -0.03500
C2444       C  0.12209072  0.73116619  0.43291972    -0.18000
H2445       H  0.08125834  0.71432751  0.45747009     0.20000
H2446       H  0.09154086  0.78707383  0.45637927     0.18400
H2447       H  0.04734707  0.78537632  0.48578674     0.18300
H2448       H  0.12537376  0.71601447  0.42814527     0.14200
C2449       C  0.88564931  0.36689591  0.75791391     0.29700
C2450       C  0.88066744  0.38685235  0.75742424    -0.36700
C2451       C  0.89990955  0.39943070  0.75750199     0.15600
C2452       C  0.92256050  0.39290817  0.75888922     0.21500
C2453       C  0.92752595  0.37293623  0.75975806    -0.34800
C2454       C  0.90830879  0.36034489  0.75875788     0.15600
O2455       O  0.87055074  0.35271717  0.75359544    -0.26800
C2456       C  0.88372050  0.33693224  0.75147532     0.05300
C2457       C  0.90731328  0.34079754  0.75440650    -0.31700
O2458       O  0.93788394  0.40703209  0.75514146    -0.23500
C2459       C  0.92487711  0.42275875  0.75110189    -0.03500
C2460       C  0.90116353  0.41886378  0.75230010    -0.18000
H2461       H  0.86310356  0.39216184  0.75488239     0.20000
H2462       H  0.94517967  0.36757691  0.75898243     0.18400
H2463       H  0.92168616  0.33086607  0.75147948     0.18300
H2464       H  0.88696478  0.42865977  0.74766169     0.14200
C2465       C  0.85265006  0.51096701  0.59363685     0.29700
C2466       C  0.83580781  0.52331157  0.58185689    -0.36700
C2467       C  0.81647470  0.51408875  0.56961492     0.15600
C2468       C  0.81416024  0.49410333  0.56865237     0.21500
C2469       C  0.83077998  0.48180039  0.58077825    -0.34800
C2470       C  0.84989500  0.49101273  0.59330203     0.15600
O2471       O  0.87198787  0.51640803  0.60639702    -0.26800
C2472       C  0.88156215  0.49971541  0.61454884     0.05300
C2473       C  0.86855637  0.48344911  0.60700482    -0.31700
O2474       O  0.79566960  0.48849469  0.55444659    -0.23500
C2475       C  0.78571775  0.50505605  0.54651291    -0.03500
C2476       C  0.79775485  0.52151193  0.55558945    -0.18000
H2477       H  0.83771517  0.53897949  0.58206986     0.20000
H2478       H  0.82904420  0.46612054  0.58020864     0.18400
H2479       H  0.87218591  0.46829425  0.61137156     0.18300
H2480       H  0.79403424  0.53661892  0.55102102     0.14200
C2481       C  0.99058509  0.61024287  0.63433074     0.29700
C2482       C  0.99250226  0.62338738  0.61165343    -0.36700
C2483       C  0.99197577  0.64324082  0.61883055     0.15600
C2484       C  0.98943772  0.64964085  0.64634693     0.21500
C2485       C  0.98832230  0.63654264  0.66897915    -0.34800
C2486       C  0.98912481  0.61679100  0.66187722     0.15600
O2487       O  0.98881951  0.59110310  0.63255155    -0.26800
C2488       C  0.98674935  0.58544222  0.65938266     0.05300
C2489       C  0.98699511  0.60077806  0.67848365    -0.31700
O2490       O  0.98682186  0.66864521  0.64810831    -0.23500
C2491       C  0.98812183  0.67463417  0.62143981    -0.03500
C2492       C  0.99159213  0.65949365  0.60228470    -0.18000
H2493       H  0.99346043  0.61850443  0.58992052     0.20000
H2494       H  0.98608896  0.64140656  0.69057753     0.18400
H2495       H  0.98466983  0.60022334  0.70119457     0.18300
H2496       H  0.99223231  0.66026953  0.57942676     0.14200
C2497       C  0.92620380  0.37034578  0.02689977     0.29700
C2498       C  0.93014196  0.39049095  0.02794164    -0.36700
C2499       C  0.91035497  0.40234728  0.02628214     0.15600
C2500       C  0.88816256  0.39499027  0.02311324     0.21500
C2501       C  0.88425394  0.37482580  0.02170390    -0.34800
C2502       C  0.90399806  0.36294511  0.02404281     0.15600
O2503       O  0.94173026  0.35670067  0.03227457    -0.26800
C2504       C  0.92931087  0.34036089  0.03289884     0.05300
C2505       C  0.90577290  0.34337631  0.02798701    -0.31700
O2506       O  0.87200604  0.40855163  0.02562612    -0.23500
C2507       C  0.88401281  0.42477988  0.03059246    -0.03500
C2508       C  0.90790568  0.42173266  0.03122892    -0.18000
H2509       H  0.94724939  0.39646541  0.03190779     0.20000
H2510       H  0.86688067  0.36878818  0.02096342     0.18400
H2511       H  0.89179182  0.33285842  0.02944293     0.18300
H2512       H  0.92136473  0.43203766  0.03694192     0.14200
C2513       C  0.76113154  0.50117190  0.28685031     0.29700
C2514       C  0.75910105  0.49382551  0.25927174    -0.36700
C2515       C  0.77577701  0.50032920  0.23972433     0.15600
C2516       C  0.79323968  0.51327597  0.24663084     0.21500
C2517       C  0.79513633  0.52078562  0.27419740    -0.34800
C2518       C  0.77852238  0.51417659  0.29381524     0.15600
O2519       O  0.74760775  0.49682474  0.30856664    -0.26800
C2520       C  0.75643234  0.50719690  0.32978593     0.05300
C2521       C  0.77568488  0.51826160  0.32178139    -0.31700
O2522       O  0.80724761  0.51698907  0.22504949    -0.23500
C2523       C  0.79861470  0.50623616  0.20404313    -0.03500
C2524       C  0.77901369  0.49564229  0.21206452    -0.18000
H2525       H  0.74560472  0.48357583  0.25351277     0.20000
H2526       H  0.80876024  0.53089287  0.28004092     0.18400
H2527       H  0.78603937  0.52796223  0.33471616     0.18300
H2528       H  0.76875793  0.48572253  0.19936884     0.14200
C2529       C  0.73757075  0.49884194  0.96303322     0.29700
C2530       C  0.71752959  0.48867839  0.95460390    -0.36700
C2531       C  0.69981525  0.49994415  0.94247640     0.15600
C2532       C  0.70189822  0.51974630  0.93828451     0.21500
C2533       C  0.72183232  0.52990185  0.94679647    -0.34800
C2534       C  0.73932025  0.51872209  0.95940269     0.15600
O2535       O  0.75546540  0.49155415  0.97692313    -0.26800
C2536       C  0.76870353  0.50702004  0.98241653     0.05300
C2537       C  0.75950169  0.52426441  0.97194584    -0.31700
O2538       O  0.68376811  0.52723667  0.92526291    -0.23500
C2539       C  0.66969177  0.51209498  0.92139963    -0.03500
C2540       C  0.67866811  0.49476234  0.93195223    -0.18000
H2541       H  0.71568143  0.47315806  0.95779227     0.20000
H2542       H  0.72347169  0.54548341  0.94410374     0.18400
H2543       H  0.76602505  0.53891887  0.97480670     0.18300
H2544       H  0.67130222  0.48028975  0.93049560     0.14200
C2545       C  0.88351990  0.49728390  0.90969660     0.29700
C2546       C  0.87771501  0.49680605  0.88086983    -0.36700
C2547       C  0.89642993  0.49706067  0.86184241     0.15600
C2548       C  0.91932489  0.49737092  0.87053221     0.21500
C2549       C  0.92512934  0.49819381  0.89935101    -0.34800
C2550       C  0.90639208  0.49831746  0.91837037     0.15600
O2551       O  0.86879063  0.49715784  0.93111852    -0.26800
C2552       C  0.88239723  0.49843139  0.95379108     0.05300
C2553       C  0.90593438  0.49936013  0.94713279    -0.31700
O2554       O  0.93403137  0.49741349  0.84909459    -0.23500
C2555       C  0.92034791  0.49748406  0.82640849    -0.03500
C2556       C  0.89680926  0.49733696  0.83304822    -0.18000
H2557       H  0.85984885  0.49641802  0.87376333     0.20000
H2558       H  0.94299105  0.49885635  0.90643883     0.18400
H2559       H  0.92054508  0.50044512  0.96146431     0.18300
H2560       H  0.88216030  0.49744954  0.81869785     0.14200
C2561       C  0.88217722  0.86763582  0.25641416     0.29700
C2562       C  0.87750162  0.88760787  0.25444564    -0.36700
C2563       C  0.89687340  0.90003945  0.25526055     0.15600
C2564       C  0.91935684  0.89339834  0.25832569     0.21500
C2565       C  0.92403301  0.87340964  0.26026952    -0.34800
C2566       C  0.90468532  0.86094900  0.25896281     0.15600
O2567       O  0.86700534  0.85342139  0.25259721    -0.26800
C2568       C  0.87996199  0.83743063  0.25268138     0.05300
C2569       C  0.90351116  0.84126177  0.25638027    -0.31700
O2570       O  0.93496158  0.90745413  0.25583759    -0.23500
C2571       C  0.92227292  0.92326275  0.25100820    -0.03500
C2572       C  0.89852572  0.91946556  0.25029841    -0.18000
H2573       H  0.86010923  0.89301378  0.25082215     0.20000
H2574       H  0.94162046  0.86790274  0.26105388     0.18400
H2575       H  0.91783272  0.83112252  0.25501550     0.18300
H2576       H  0.88463577  0.92938561  0.24488906     0.14200
C2577       C  0.99030122  0.74990148  0.06921981     0.29700
C2578       C  0.97206990  0.73869483  0.08038638    -0.36700
C2579       C  0.95432175  0.74911331  0.09387195     0.15600
C2580       C  0.95476262  0.76911156  0.09664758     0.21500
C2581       C  0.97287225  0.78029628  0.08536198    -0.34800
C2582       C  0.99036453  0.76993369  0.07148431     0.15600
O2583       O  0.00806932  0.74335694  0.05446166    -0.26800
C2584       C  0.01940055  0.75944972  0.04697307     0.05300
C2585       C  0.00921879  0.77638809  0.05699589    -0.31700
O2586       O  0.93678075  0.77582824  0.11071808    -0.23500
C2587       C  0.92447009  0.75997794  0.11674027    -0.03500
C2588       C  0.93443801  0.74291496  0.10665534    -0.18000
H2589       H  0.97157667  0.72301668  0.07831506     0.20000
H2590       H  0.97315377  0.79600326  0.08698900     0.18400
H2591       H  0.01451980  0.79129318  0.05327057     0.18300
H2592       H  0.92831061  0.72811502  0.10920222     0.14200
C2593       C  0.90960010  0.76165118  0.36252740     0.29700
C2594       C  0.92943844  0.76060290  0.37983324    -0.36700
C2595       C  0.92547909  0.76197963  0.40911919     0.15600
C2596       C  0.90349225  0.76390235  0.42046817     0.21500
C2597       C  0.88384708  0.76552087  0.40318617    -0.34800
C2598       C  0.88782026  0.76444251  0.37403099     0.15600
O2599       O  0.90895331  0.75986673  0.33471057    -0.26800
C2600       C  0.88651422  0.76188793  0.32844680     0.05300
C2601       C  0.87262799  0.76493177  0.35206131    -0.31700
O2602       O  0.90349032  0.76370141  0.44831713    -0.23500
C2603       C  0.92579689  0.76202944  0.45503393    -0.03500
C2604       C  0.94037169  0.76107252  0.43155410    -0.18000
H2605       H  0.94665188  0.75854200  0.37113009     0.20000
H2606       H  0.86657882  0.76717396  0.41190866     0.18400
H2607       H  0.85395017  0.76664109  0.35293681     0.18300
H2608       H  0.95905909  0.75936039  0.43115900     0.14200
C2609       C  0.81196308  0.61588897  0.12001573     0.29700
C2610       C  0.81330812  0.63536071  0.11101407    -0.36700
C2611       C  0.81409504  0.64950049  0.13247478     0.15600
C2612       C  0.81291946  0.64484759  0.16083847     0.21500
C2613       C  0.81166490  0.62539582  0.16983099    -0.34800
C2614       C  0.81153696  0.61124567  0.14841107     0.15600
O2615       O  0.81297021  0.60031271  0.10366768    -0.26800
C2616       C  0.81349792  0.58549847  0.12183142     0.05300
C2617       C  0.81271050  0.59146630  0.14995292    -0.31700
O2618       O  0.81477482  0.66027715  0.17733433    -0.23500
C2619       C  0.81754832  0.67501252  0.15935765    -0.03500
C2620       C  0.81736632  0.66915854  0.13115810    -0.18000
H2621       H  0.81461647  0.63917198  0.08885982     0.20000
H2622       H  0.81172672  0.62153360  0.19202232     0.18400
H2623       H  0.81385313  0.58254989  0.16877239     0.18300
H2624       H  0.81980892  0.67805087  0.11249087     0.14200
C2625       C  0.67316502  0.64220816  0.77625835     0.29700
C2626       C  0.67779723  0.62215831  0.77709327    -0.36700
C2627       C  0.65841451  0.60974524  0.77546829     0.15600
C2628       C  0.63595976  0.61649406  0.77267896     0.21500
C2629       C  0.63133085  0.63653382  0.77172413    -0.34800
C2630       C  0.65067735  0.64895898  0.77388485     0.15600
O2631       O  0.68830255  0.65633704  0.78115843    -0.26800
C2632       C  0.67532123  0.67234067  0.78208532     0.05300
C2633       C  0.65182300  0.66857016  0.77774462    -0.31700
O2634       O  0.62030825  0.60245574  0.77487868    -0.23500
C2635       C  0.63290425  0.58652293  0.77922661    -0.03500
C2636       C  0.65667959  0.59022996  0.77981819    -0.18000
H2637       H  0.69514550  0.61663589  0.78064800     0.20000
H2638       H  0.61374773  0.64206853  0.77123917     0.18400
H2639       H  0.63747831  0.67866035  0.77941903     0.18300
H2640       H  0.67050773  0.58024097  0.78519286     0.14200
C2641       C  0.76038615  0.76003216  0.99988786     0.29700
C2642       C  0.75845618  0.76705819  0.02765782    -0.36700
C2643       C  0.77631261  0.76167288  0.04628647     0.15600
C2644       C  0.79489333  0.75027086  0.03823959     0.21500
C2645       C  0.79693765  0.74342033  0.01043534    -0.34800
C2646       C  0.77900607  0.74866955  0.99187467     0.15600
O2647       O  0.74544620  0.76285196  0.97904929    -0.26800
C2648       C  0.75461825  0.75306118  0.95747262     0.05300
C2649       C  0.77550682  0.74402499  0.96429982    -0.31700
O2650       O  0.80939938  0.74677646  0.05927041    -0.23500
C2651       C  0.79997225  0.75610494  0.08106630    -0.03500
C2652       C  0.77939476  0.76562019  0.07417515    -0.18000
H2653       H  0.74392813  0.77589600  0.03437524     0.20000
H2654       H  0.81134247  0.73441202  0.00381106     0.18400
H2655       H  0.78652007  0.73525349  0.95083834     0.18300
H2656       H  0.76828415  0.77417122  0.08782162     0.14200
C2657       C  0.81812603  0.74768349  0.72092166     0.29700
C2658       C  0.83656054  0.73688662  0.70951777    -0.36700
C2659       C  0.85352191  0.74762797  0.69493033     0.15600
C2660       C  0.85217258  0.76753582  0.69138078     0.21500
C2661       C  0.83384479  0.77830610  0.70285223    -0.34800
C2662       C  0.81714663  0.76764018  0.71779898     0.15600
O2663       O  0.80080899  0.74080897  0.73627585    -0.26800
C2664       C  0.78881755  0.75662732  0.74323932     0.05300
C2665       C  0.79817645  0.77370704  0.73233615    -0.31700
O2666       O  0.86960422  0.77460598  0.67654640    -0.23500
C2667       C  0.88250975  0.75909084  0.67081113    -0.03500
C2668       C  0.87341656  0.74188779  0.68178149    -0.18000
H2669       H  0.83776046  0.72127978  0.71216480     0.20000
H2670       H  0.83281626  0.79394791  0.70054812     0.18400
H2671       H  0.79212415  0.78847618  0.73523952     0.18300
H2672       H  0.88014881  0.72726789  0.67966356     0.14200
C2673       C  0.65098055  0.11187128  0.00770339     0.29700
C2674       C  0.63093765  0.12343929  0.00900183    -0.36700
C2675       C  0.63455112  0.14362386  0.00871331     0.15600
C2676       C  0.65642572  0.15179184  0.00675179     0.21500
C2677       C  0.67649558  0.14023608  0.00621392    -0.34800
C2678       C  0.67289262  0.12006423  0.00697792     0.15600
O2679       O  0.65144230  0.09286158  0.00422889    -0.26800
C2680       C  0.67393780  0.08873994  0.00198747     0.05300
C2681       C  0.68815527  0.10507590  0.00373584    -0.31700
O2682       O  0.65569469  0.17069541  0.00239051    -0.23500
C2683       C  0.63312471  0.17481871  0.00224714    -0.03500
C2684       C  0.61909058  0.15856689  0.00633365    -0.18000
H2685       H  0.61369079  0.11713613  0.00865137     0.20000
H2686       H  0.69364141  0.14651412  0.00374834     0.18400
H2687       H  0.70672685  0.10595000  0.00031354     0.18300
H2688       H  0.60036446  0.15762297  0.00467406     0.14200
C2689       C  0.77979108  0.99767027  0.74302893     0.29700
C2690       C  0.76254782  0.98946305  0.76039231    -0.36700
C2691       C  0.75990561  0.99791861  0.78718430     0.15600
C2692       C  0.77346992  0.01327649  0.79625494     0.21500
C2693       C  0.79069850  0.02148315  0.77889434    -0.34800
C2694       C  0.79325524  0.01310287  0.75205016     0.15600
O2695       O  0.78481870  0.99232104  0.71701041    -0.26800
C2696       C  0.80175055  0.00443354  0.70919439     0.05300
C2697       C  0.80775648  0.01770847  0.73016942    -0.31700
O2698       O  0.76824368  0.01882307  0.82211827    -0.23500
C2699       C  0.75101275  0.00697368  0.82975732    -0.03500
C2700       C  0.74503019  0.99363977  0.80883243    -0.18000
H2701       H  0.75184850  0.97741569  0.75341337     0.20000
H2702       H  0.80129443  0.03361069  0.78581100     0.18400
H2703       H  0.82055103  0.02925590  0.72921571     0.18300
H2704       H  0.73190350  0.98234830  0.80960732     0.14200
C2705       C  0.85574113  0.01303394  0.08993174     0.29700
C2706       C  0.83975290  0.02534020  0.07640835    -0.36700
C2707       C  0.82078911  0.01607618  0.06339074     0.15600
C2708       C  0.81812386  0.99610370  0.06327345     0.21500
C2709       C  0.83398441  0.98387103  0.07682340    -0.34800
C2710       C  0.85261070  0.99311351  0.09021135     0.15600
O2711       O  0.87434709  0.01846715  0.10421227    -0.26800
C2712       C  0.88298745  0.00178878  0.11387068     0.05300
C2713       C  0.87014969  0.98557423  0.10586317    -0.31700
O2714       O  0.79944088  0.99042246  0.04960536    -0.23500
C2715       C  0.78967171  0.00692465  0.04119488    -0.03500
C2716       C  0.80214749  0.02342624  0.04913040    -0.18000
H2717       H  0.84177961  0.04099931  0.07638446     0.20000
H2718       H  0.83178661  0.96822798  0.07718627     0.18400
H2719       H  0.87314953  0.97046402  0.11117346     0.18300
H2720       H  0.79833760  0.03850214  0.04446309     0.14200
C2721       C  0.73454820  0.86078253  0.89977897     0.29700
C2722       C  0.73677692  0.87382712  0.92252359    -0.36700
C2723       C  0.73520088  0.89369409  0.91580195     0.15600
C2724       C  0.73155273  0.90026766  0.88858273     0.21500
C2725       C  0.73005977  0.88726926  0.86573710    -0.34800
C2726       C  0.73176243  0.86742160  0.87243786     0.15600
O2727       O  0.73382117  0.84159096  0.90146535    -0.26800
C2728       C  0.73095800  0.83586112  0.87477863     0.05300
C2729       C  0.72973281  0.85130946  0.85580460    -0.31700
O2730       O  0.72872699  0.91930023  0.88738583    -0.23500
C2731       C  0.73094219  0.92507156  0.91412529    -0.03500
C2732       C  0.73516168  0.90977364  0.93272736    -0.18000
H2733       H  0.73884713  0.86881872  0.94407409     0.20000
H2734       H  0.72702957  0.89225416  0.84434246     0.18400
H2735       H  0.72676456  0.85072622  0.83321228     0.18300
H2736       H  0.73687829  0.91034823  0.95551197     0.14200
C2737       C  0.63187253  0.64137268  0.50946346     0.29700
C2738       C  0.62646136  0.62150103  0.50774586    -0.36700
C2739       C  0.64539873  0.60870414  0.50807785     0.15600
C2740       C  0.66811840  0.61494293  0.51080844     0.21500
C2741       C  0.67350585  0.63480532  0.51289159    -0.34800
C2742       C  0.65462022  0.64763638  0.51168479     0.15600
O2743       O  0.61725118  0.65582104  0.50511937    -0.26800
C2744       C  0.63080916  0.67150061  0.50437346     0.05300
C2745       C  0.65419750  0.66728732  0.50826542    -0.31700
O2746       O  0.68322908  0.60074403  0.50719993    -0.23500
C2747       C  0.67002644  0.58528041  0.50182431    -0.03500
C2748       C  0.64638084  0.58936678  0.50211204    -0.18000
H2749       H  0.60887770  0.61646324  0.50414949     0.20000
H2750       H  0.69128903  0.63995564  0.51318440     0.18400
H2751       H  0.66887341  0.67709010  0.50644657     0.18300
H2752       H  0.63213479  0.57978504  0.49657197     0.14200
C2753       C  0.69963751  0.75527724  0.33962805     0.29700
C2754       C  0.71623934  0.76787129  0.32777849    -0.36700
C2755       C  0.73668613  0.75913077  0.31788812     0.15600
C2756       C  0.74028369  0.73930040  0.31899345     0.21500
C2757       C  0.72384353  0.72673857  0.33121776    -0.34800
C2758       C  0.70356428  0.73552183  0.34152303     0.15600
O2759       O  0.67978318  0.76046092  0.35127815    -0.26800
C2760       C  0.67090575  0.74385863  0.36100606     0.05300
C2761       C  0.68496847  0.72783012  0.35550090    -0.31700
O2762       O  0.75978492  0.73407314  0.30656111    -0.23500
C2763       C  0.76909376  0.75079454  0.29794560    -0.03500
C2764       C  0.75557931  0.76691507  0.30460741    -0.18000
H2765       H  0.71344237  0.78341107  0.32648269     0.20000
H2766       H  0.72664163  0.71119790  0.33250746     0.18400
H2767       H  0.68237790  0.71288047  0.36201433     0.18300
H2768       H  0.75844260  0.78194467  0.29867045     0.14200
C2769       C  0.64956819  0.74986615  0.67300956     0.29700
C2770       C  0.63000469  0.74962870  0.65533657    -0.36700
C2771       C  0.63449164  0.74774050  0.62631724     0.15600
C2772       C  0.65670519  0.74673129  0.61536863     0.21500
C2773       C  0.67623332  0.74672326  0.63305093    -0.34800
C2774       C  0.67172101  0.74809894  0.66209607     0.15600
O2775       O  0.64946552  0.75130942  0.70082104    -0.26800
C2776       C  0.67180910  0.75009512  0.70775008     0.05300
C2777       C  0.68643396  0.74800828  0.68456135    -0.31700
O2778       O  0.65690508  0.74590967  0.58752626    -0.23500
C2779       C  0.63452124  0.74596989  0.58062683    -0.03500
C2780       C  0.61976150  0.74695161  0.60385714    -0.18000
H2781       H  0.61252929  0.75073666  0.66362978     0.20000
H2782       H  0.69370985  0.74565427  0.62475102     0.18400
H2783       H  0.70517763  0.74675755  0.68434766     0.18300
H2784       H  0.60097829  0.74770323  0.60403217     0.14200
C2785       C  0.65629640  0.10872720  0.27895941     0.29700
C2786       C  0.67656645  0.12016252  0.27880270    -0.36700
C2787       C  0.67333762  0.14039170  0.27789562     0.15600
C2788       C  0.65158225  0.14878240  0.27738070     0.21500
C2789       C  0.63131700  0.13732200  0.27649624    -0.34800
C2790       C  0.63455602  0.11707195  0.27727096     0.15600
O2791       O  0.65530079  0.08984208  0.28381411    -0.26800
C2792       C  0.63266039  0.08587646  0.28457435     0.05300
C2793       C  0.61888327  0.10225087  0.28045318    -0.31700
O2794       O  0.65242378  0.16779568  0.28120861    -0.23500
C2795       C  0.67501239  0.17173094  0.28353648    -0.03500
C2796       C  0.68887800  0.15524780  0.28140527    -0.18000
H2797       H  0.69362126  0.11376813  0.28114566     0.20000
H2798       H  0.61418508  0.14376342  0.27709481     0.18400
H2799       H  0.60019106  0.10335217  0.28237723     0.18300
H2800       H  0.70740929  0.15415425  0.28494357     0.14200
C2801       C  0.73685496  0.99867522  0.47209500     0.29700
C2802       C  0.71864736  0.98779975  0.46012012    -0.36700
C2803       C  0.70015406  0.99857925  0.44875939     0.15600
C2804       C  0.69973915  0.01866287  0.44881495     0.21500
C2805       C  0.71775451  0.02950214  0.46113153    -0.34800
C2806       C  0.73611592  0.01874102  0.47266085     0.15600
O2807       O  0.75573381  0.99167790  0.48428298    -0.26800
C2808       C  0.76717243  0.00750954  0.49276719     0.05300
C2809       C  0.75570398  0.02471320  0.48616595    -0.31700
O2810       O  0.68155064  0.02577858  0.43537747    -0.23500
C2811       C  0.66988811  0.01004988  0.42705647    -0.03500
C2812       C  0.68058798  0.99272752  0.43493364    -0.18000
H2813       H  0.71892331  0.97205936  0.45956691     0.20000
H2814       H  0.71760093  0.04524698  0.46142672     0.18400
H2815       H  0.76079904  0.03947168  0.49128067     0.18300
H2816       H  0.67542391  0.97800994  0.42967364     0.14200
C2817       C  0.64776617  0.01200318  0.11406615     0.29700
C2818       C  0.62828793  0.01052766  0.13175247    -0.36700
C2819       C  0.63279871  0.01104705  0.16087681     0.15600
C2820       C  0.65497885  0.01236247  0.17186327     0.21500
C2821       C  0.67439290  0.01429979  0.15416681    -0.34800
C2822       C  0.66982443  0.01430705  0.12506490     0.15600
O2823       O  0.64771680  0.01126735  0.08621282    -0.26800
C2824       C  0.66996840  0.01358981  0.07936958     0.05300
C2825       C  0.68448447  0.01570970  0.10262400    -0.31700
O2826       O  0.65522636  0.01170750  0.19973649    -0.23500
C2827       C  0.63287980  0.01038371  0.20663312    -0.03500
C2828       C  0.61812311  0.01008760  0.18337572    -0.18000
H2829       H  0.61087186  0.00898527  0.12340957     0.20000
H2830       H  0.69183856  0.01562505  0.16249033     0.18400
H2831       H  0.70319935  0.01728612  0.10290273     0.18300
H2832       H  0.59936463  0.00893609  0.18315033     0.14200
C2833       C  0.56798697  0.89842740  0.39756013     0.29700
C2834       C  0.56607211  0.88574793  0.42069867    -0.36700
C2835       C  0.56905724  0.86592645  0.41473810     0.15600
C2836       C  0.57390985  0.85910026  0.38792291     0.21500
C2837       C  0.57521686  0.87173036  0.36467209    -0.34800
C2838       C  0.57187340  0.89151378  0.37055283     0.15600
O2839       O  0.56760893  0.91758045  0.39863736    -0.26800
C2840       C  0.57075524  0.92296732  0.37189642     0.05300
C2841       C  0.57328710  0.90738824  0.35341176    -0.31700
O2842       O  0.57757595  0.84018473  0.38745390    -0.23500
C2843       C  0.57468985  0.83475593  0.41422959    -0.03500
C2844       C  0.56920458  0.85014393  0.43215391    -0.18000
H2845       H  0.56309849  0.89101747  0.44196256     0.20000
H2846       H  0.57913250  0.86654480  0.34359293     0.18400
H2847       H  0.57709744  0.90777980  0.33099374     0.18300
H2848       H  0.56649416  0.84981620  0.45480876     0.14200
C2849       C  0.52832585  0.01058061  0.49032147     0.29700
C2850       C  0.51105340  0.01880919  0.50755358    -0.36700
C2851       C  0.51019346  0.01213000  0.53556123     0.15600
C2852       C  0.52525285  0.99823147  0.54581387     0.21500
C2853       C  0.54250570  0.98996605  0.52856864    -0.34800
C2854       C  0.54342702  0.99671102  0.50057138     0.15600
O2855       O  0.53247004  0.01501001  0.46367946    -0.26800
C2856       C  0.55050377  0.00389349  0.45664854     0.05300
C2857       C  0.55804312  0.99213373  0.47878546    -0.31700
O2858       O  0.52143576  0.99416866  0.57264774    -0.23500
C2859       C  0.50371334  0.00560271  0.57976946    -0.03500
C2860       C  0.49598528  0.01714263  0.55751282    -0.18000
H2861       H  0.49922547  0.02976943  0.49970977     0.20000
H2862       H  0.55447028  0.97913741  0.53649656     0.18400
H2863       H  0.57231649  0.98191253  0.47888672     0.18300
H2864       H  0.48200518  0.02764656  0.55752469     0.14200
C2865       C  0.56248640  0.00165286  0.82199868     0.29700
C2866       C  0.58141483  0.99074416  0.83189815    -0.36700
C2867       C  0.60007694  0.00148556  0.84302872     0.15600
C2868       C  0.59991488  0.02153404  0.84478611     0.21500
C2869       C  0.58111280  0.03241719  0.83468636    -0.34800
C2870       C  0.56262447  0.02171711  0.82326235     0.15600
O2871       O  0.54396921  0.99475895  0.80890744    -0.26800
C2872       C  0.53224254  0.01063778  0.80152216     0.05300
C2873       C  0.54297350  0.02779902  0.81007959    -0.31700
O2874       O  0.61851934  0.02855853  0.85746191    -0.23500
C2875       C  0.63099679  0.01284704  0.86353769    -0.03500
C2876       C  0.62046995  0.99558670  0.85483218    -0.18000
H2877       H  0.58170467  0.97502183  0.83066068     0.20000
H2878       H  0.58096694  0.04815261  0.83552845     0.18400
H2879       H  0.53780746  0.04261101  0.80555851     0.18300
H2880       H  0.62632099  0.98082146  0.85831119     0.14200
C2881       C  0.35444858  0.01230074  0.59116630     0.29700
C2882       C  0.33842782  0.02457740  0.57773481    -0.36700
C2883       C  0.31870644  0.01542450  0.56643644     0.15600
C2884       C  0.31527620  0.99555050  0.56781911     0.21500
C2885       C  0.33107175  0.98335339  0.58154621    -0.34800
C2886       C  0.35057087  0.99251449  0.59313035     0.15600
O2887       O  0.37392173  0.01767954  0.60363513    -0.26800
C2888       C  0.38246152  0.00110802  0.61377996     0.05300
C2889       C  0.36862708  0.98501293  0.60791784    -0.31700
O2890       O  0.29644031  0.98990078  0.55442421    -0.23500
C2891       C  0.28740989  0.00638132  0.54481138    -0.03500
C2892       C  0.30038201  0.02278464  0.55174943    -0.18000
H2893       H  0.34115297  0.04012688  0.57618067     0.20000
H2894       H  0.32841929  0.96778528  0.58291851     0.18400
H2895       H  0.37126528  0.97003037  0.61418824     0.18300
H2896       H  0.29739604  0.03773002  0.54553737     0.14200
C2897       C  0.51239613  0.25440519  0.74864786     0.29700
C2898       C  0.51155876  0.24578591  0.77548802    -0.36700
C2899       C  0.52851856  0.25201212  0.79477993     0.15600
C2900       C  0.54516247  0.26580847  0.78828553     0.21500
C2901       C  0.54589466  0.27453305  0.76148490    -0.34800
C2902       C  0.52896892  0.26826345  0.74215417     0.15600
O2903       O  0.49867166  0.25034903  0.72706429    -0.26800
C2904       C  0.50658203  0.26177774  0.70648999     0.05300
C2905       C  0.52535249  0.27327446  0.71473332    -0.31700
O2906       O  0.55961523  0.26911746  0.80946753    -0.23500
C2907       C  0.55210822  0.25723178  0.82974397    -0.03500
C2908       C  0.53277832  0.24631634  0.82175545    -0.18000
H2909       H  0.49879034  0.23479970  0.78084163     0.20000
H2910       H  0.55891927  0.28526314  0.75595777     0.18400
H2911       H  0.53514425  0.28360034  0.70216391     0.18300
H2912       H  0.52333066  0.23560988  0.83403736     0.14200
C2913       C  0.60264206  0.24113882  0.43912227     0.29700
C2914       C  0.58307917  0.23081904  0.44848434    -0.36700
C2915       C  0.56614441  0.24181033  0.46245758     0.15600
C2916       C  0.56808967  0.26165040  0.46646997     0.21500
C2917       C  0.58775107  0.27194141  0.45728052    -0.34800
C2918       C  0.60490913  0.26087963  0.44380204     0.15600
O2919       O  0.62040258  0.23382921  0.42521090    -0.26800
C2920       C  0.63441146  0.24901005  0.42135380     0.05300
C2921       C  0.62573193  0.26622503  0.43258662    -0.31700
O2922       O  0.55061636  0.26886034  0.48107015    -0.23500
C2923       C  0.53747433  0.25340473  0.48670352    -0.03500
C2924       C  0.54627919  0.23618157  0.47569240    -0.18000
H2925       H  0.58133160  0.21527779  0.44541768     0.20000
H2926       H  0.58971627  0.28741238  0.46084759     0.18400
H2927       H  0.63319323  0.28068061  0.43150551     0.18300
H2928       H  0.53955548  0.22156089  0.47823566     0.14200
C2929       C  0.48645387  0.15209371  0.64939138     0.29700
C2930       C  0.48682481  0.13909260  0.67223761    -0.36700
C2931       C  0.48642722  0.11927167  0.66528233     0.15600
C2932       C  0.48521867  0.11265346  0.63775258     0.21500
C2933       C  0.48535472  0.12565442  0.61484351    -0.34800
C2934       C  0.48624828  0.14549882  0.62180387     0.15600
O2935       O  0.48574863  0.17123653  0.65110031    -0.26800
C2936       C  0.48568303  0.17700426  0.62425719     0.05300
C2937       C  0.48604703  0.16163765  0.60508837    -0.31700
O2938       O  0.48331342  0.09354282  0.63627344    -0.23500
C2939       C  0.48381848  0.08786882  0.66318995    -0.03500
C2940       C  0.48587397  0.10323817  0.68213828    -0.18000
H2941       H  0.48703141  0.14408702  0.69394417     0.20000
H2942       H  0.48444873  0.12066653  0.59315710     0.18400
H2943       H  0.48526708  0.16229572  0.58222989     0.18300
H2944       H  0.48584169  0.10269712  0.70502123     0.14200
C2945       C  0.27225775  0.01372274  0.29417411     0.29700
C2946       C  0.28914717  0.02191635  0.27636329    -0.36700
C2947       C  0.29113965  0.01360099  0.24942603     0.15600
C2948       C  0.27741889  0.99826953  0.24061513     0.21500
C2949       C  0.26047254  0.99006237  0.25844102    -0.34800
C2950       C  0.25846324  0.99841624  0.28541902     0.15600
O2951       O  0.26779833  0.01908832  0.32033835    -0.26800
C2952       C  0.25086620  0.00713970  0.32855681     0.05300
C2953       C  0.24427113  0.99396243  0.30766284    -0.31700
O2954       O  0.28226108  0.99278804  0.21456266    -0.23500
C2955       C  0.29935215  0.00471562  0.20660233    -0.03500
C2956       C  0.30558596  0.01799377  0.22745894    -0.18000
H2957       H  0.30005448  0.03389369  0.28311118     0.20000
H2958       H  0.24967359  0.97799433  0.25176629     0.18400
H2959       H  0.23124760  0.98260510  0.30887723     0.18300
H2960       H  0.31870676  0.02928188  0.22649143     0.14200
C2961       C  0.45304799  0.99289310  0.19024251     0.29700
C2962       C  0.47153847  0.98198811  0.20105622    -0.36700
C2963       C  0.48894701  0.99259315  0.21487306     0.15600
C2964       C  0.48852911  0.01260637  0.21739121     0.21500
C2965       C  0.46992192  0.02351783  0.20665603    -0.34800
C2966       C  0.45217750  0.01284669  0.19341336     0.15600
O2967       O  0.43505457  0.98593377  0.17634588    -0.26800
C2968       C  0.42223695  0.00155868  0.17093811     0.05300
C2969       C  0.43191503  0.01872818  0.18123728    -0.31700
O2970       O  0.50620854  0.01939451  0.23222033    -0.23500
C2971       C  0.51785761  0.00347142  0.23953396    -0.03500
C2972       C  0.50792787  0.98641247  0.22928843    -0.18000
H2973       H  0.47211213  0.96629682  0.19923697     0.20000
H2974       H  0.46909725  0.03916338  0.20900196     0.18400
H2975       H  0.42544535  0.03342389  0.17902082     0.18300
H2976       H  0.51341150  0.97156711  0.23295535     0.14200
C2977       C  0.24220886  0.02044943  0.96465045     0.29700
C2978       C  0.22565307  0.03335020  0.95380937    -0.36700
C2979       C  0.20532448  0.02479318  0.94336803     0.15600
C2980       C  0.20154542  0.00494890  0.94374871     0.21500
C2981       C  0.21831265  0.99203727  0.95398730    -0.34800
C2982       C  0.23873946  0.00056369  0.96415312     0.15600
O2983       O  0.26137719  0.02534356  0.97796745    -0.26800
C2984       C  0.27050849  0.00838093  0.98554714     0.05300
C2985       C  0.25734560  0.99242252  0.97723865    -0.31700
O2986       O  0.18142635  0.00007586  0.93271395    -0.23500
C2987       C  0.17227569  0.01697838  0.92497129    -0.03500
C2988       C  0.18635102  0.03289576  0.93103343    -0.18000
H2989       H  0.22824119  0.04895368  0.95404131     0.20000
H2990       H  0.21550620  0.97646174  0.95429835     0.18400
H2991       H  0.25996934  0.97725248  0.98247857     0.18300
H2992       H  0.18346619  0.04805491  0.92594127     0.14200
C2993       C  0.38291223  0.99462908  0.91257698     0.29700
C2994       C  0.37704945  0.99198717  0.88396016    -0.36700
C2995       C  0.39513708  0.99475216  0.86437441     0.15600
C2996       C  0.41754061  0.99932644  0.87248371     0.21500
C2997       C  0.42332536  0.00211636  0.90099594    -0.34800
C2998       C  0.40518071  0.99977174  0.92046598     0.15600
O2999       O  0.36868902  0.99329413  0.93443640    -0.26800
C3000       C  0.38200455  0.99791524  0.95649329     0.05300
C3001       C  0.40483196  0.00212435  0.94902006    -0.31700
O3002       O  0.43174472  0.00128845  0.85079151    -0.23500
C3003       C  0.41822018  0.99830031  0.82842346    -0.03500
C3004       C  0.39525068  0.99420623  0.83551194    -0.18000
H3005       H  0.35955157  0.98836825  0.87740362     0.20000
H3006       H  0.44069840  0.00617068  0.90750967     0.18400
H3007       H  0.41906791  0.00634060  0.96268424     0.18300
H3008       H  0.38083400  0.99126243  0.82144085     0.14200
C3009       C  0.45594591  0.26861713  0.09442943     0.29700
C3010       C  0.47371155  0.27981855  0.08239993    -0.36700
C3011       C  0.49146219  0.26939802  0.06909619     0.15600
C3012       C  0.49196054  0.24932125  0.06808461     0.21500
C3013       C  0.47405006  0.23810770  0.07994498    -0.34800
C3014       C  0.45601436  0.24855726  0.09277124     0.15600
O3015       O  0.43790232  0.27536256  0.10833852    -0.26800
C3016       C  0.42603640  0.25945852  0.11526342     0.05300
C3017       C  0.43633952  0.24233400  0.10597488    -0.31700
O3018       O  0.50980352  0.24267471  0.05356327    -0.23500
C3019       C  0.52062005  0.25872459  0.04491528    -0.03500
C3020       C  0.51004772  0.27576296  0.05403605    -0.18000
H3021       H  0.47355290  0.29555970  0.08307102     0.20000
H3022       H  0.47398239  0.22238055  0.07881448     0.18400
H3023       H  0.43065487  0.22750354  0.10948456     0.18300
H3024       H  0.51485872  0.29064689  0.04927765     0.14200
C3025       C  0.40765506  0.26037771  0.36447300     0.29700
C3026       C  0.42738392  0.26083850  0.38188328    -0.36700
C3027       C  0.42318502  0.26188944  0.41106907     0.15600
C3028       C  0.40109332  0.26199346  0.42244619     0.21500
C3029       C  0.38134758  0.26200058  0.40500011    -0.34800
C3030       C  0.38556423  0.26137868  0.37575955     0.15600
O3031       O  0.40755199  0.25918352  0.33661453    -0.26800
C3032       C  0.38511560  0.25980906  0.32993180     0.05300
C3033       C  0.37063669  0.26131203  0.35340405    -0.31700
O3034       O  0.40126223  0.26193442  0.45037574    -0.23500
C3035       C  0.42376147  0.26219221  0.45689735    -0.03500
C3036       C  0.43818543  0.26237288  0.43330912    -0.18000
H3037       H  0.44479783  0.26032891  0.37327960     0.20000
H3038       H  0.36392965  0.26235766  0.41361233     0.18400
H3039       H  0.35185152  0.26194991  0.35387724     0.18300
H3040       H  0.45698402  0.26225211  0.43271390     0.14200
C3041       C  0.31911581  0.14922661  0.13569024     0.29700
C3042       C  0.31828041  0.13593508  0.11315867    -0.36700
C3043       C  0.31720739  0.11620762  0.12068989     0.15600
C3044       C  0.31760112  0.10994242  0.14843603     0.21500
C3045       C  0.31807924  0.12321100  0.17093069    -0.34800
C3046       C  0.31851031  0.14294147  0.16341910     0.15600
O3047       O  0.32104518  0.16833370  0.13363726    -0.26800
C3048       C  0.32114048  0.17434816  0.16041739     0.05300
C3049       C  0.31946756  0.15918304  0.17979697    -0.31700
O3050       O  0.31813043  0.09082875  0.15059288    -0.23500
C3051       C  0.31745594  0.08479561  0.12389401    -0.03500
C3052       C  0.31678647  0.09991257  0.10438063    -0.18000
H3053       H  0.31871394  0.14062150  0.09131006     0.20000
H3054       H  0.31839533  0.11847957  0.19276070     0.18400
H3055       H  0.31994897  0.15999630  0.20265579     0.18300
H3056       H  0.31723467  0.09898213  0.08152686     0.14200
C3057       C  0.15987408  0.11031065  0.77455212     0.29700
C3058       C  0.17996910  0.12189391  0.77503176    -0.36700
C3059       C  0.17641066  0.14203851  0.77383378     0.15600
C3060       C  0.15451708  0.15018710  0.77275273     0.21500
C3061       C  0.13450805  0.13858213  0.77091072    -0.34800
C3062       C  0.13808520  0.11843638  0.77168879     0.15600
O3063       O  0.15892633  0.09154559  0.78008682    -0.26800
C3064       C  0.13630846  0.08750150  0.77989465     0.05300
C3065       C  0.12250900  0.10361621  0.77448754    -0.31700
O3066       O  0.15489441  0.16908495  0.77731506    -0.23500
C3067       C  0.17733169  0.17315939  0.78047556    -0.03500
C3068       C  0.19158388  0.15697205  0.77816519    -0.18000
H3069       H  0.19703743  0.11570513  0.77826150     0.20000
H3070       H  0.11726450  0.14482619  0.77105068     0.18400
H3071       H  0.10377257  0.10463640  0.77575109     0.18300
H3072       H  0.21003266  0.15606400  0.78239509     0.14200
C3073       C  0.27733451  0.24961825  0.99021317     0.29700
C3074       C  0.29589454  0.24294122  0.00687127    -0.36700
C3075       C  0.29677861  0.24993739  0.03473748     0.15600
C3076       C  0.28047623  0.26262961  0.04546509     0.21500
C3077       C  0.26192317  0.26936247  0.02875143    -0.34800
C3078       C  0.26106376  0.26238485  0.00083148     0.15600
O3079       O  0.27326635  0.24490613  0.96365058    -0.26800
C3080       C  0.25416208  0.25478939  0.95695925     0.05300
C3081       C  0.24576285  0.26596442  0.97931406    -0.31700
O3082       O  0.28448946  0.26710845  0.07217497    -0.23500
C3083       C  0.30361061  0.25715209  0.07873741    -0.03500
C3084       C  0.31206129  0.24623984  0.05617620    -0.18000
H3085       H  0.30873548  0.23294312  0.99866709     0.20000
H3086       H  0.24903676  0.27931353  0.03696831     0.18400
H3087       H  0.23068909  0.27534668  0.97962598     0.18300
H3088       H  0.32711113  0.23683568  0.05573366     0.14200
C3089       C  0.06715266  0.25984199  0.96589970     0.29700
C3090       C  0.08667535  0.27015538  0.95633012    -0.36700
C3091       C  0.10441626  0.25893629  0.94427518     0.15600
C3092       C  0.10284742  0.23900396  0.94117078     0.21500
C3093       C  0.08341300  0.22867222  0.95095246    -0.34800
C3094       C  0.06587906  0.23984548  0.96351360     0.15600
O3095       O  0.04918268  0.26724546  0.97940231    -0.26800
C3096       C  0.03633599  0.25176725  0.98589822     0.05300
C3097       C  0.04589442  0.23434104  0.97658703    -0.31700
O3098       O  0.12096406  0.23158367  0.92796727    -0.23500
C3099       C  0.13451950  0.24692402  0.92307367    -0.03500
C3100       C  0.12516161  0.26430007  0.93292652    -0.18000
H3101       H  0.08808642  0.28578902  0.95851749     0.20000
H3102       H  0.08213721  0.21300966  0.94911709     0.18400
H3103       H  0.03959396  0.21969785  0.98021913     0.18300
H3104       H  0.13204658  0.27888400  0.93057758     0.14200
C3105       C  0.31953897  0.26805805  0.72024236     0.29700
C3106       C  0.33638227  0.28037997  0.70852504    -0.36700
C3107       C  0.35437929  0.27122026  0.69382009     0.15600
C3108       C  0.35595178  0.25126774  0.69112203     0.21500
C3109       C  0.33881802  0.23891583  0.70241536    -0.34800
C3110       C  0.32055205  0.24812805  0.71679745     0.15600
O3111       O  0.30180824  0.27354950  0.73585354    -0.26800
C3112       C  0.29103121  0.25698795  0.74217184     0.05300
C3113       C  0.30175359  0.24066480  0.73066671    -0.31700
O3114       O  0.37446870  0.24590556  0.67667108    -0.23500
C3115       C  0.38460556  0.26268093  0.66976695    -0.03500
C3116       C  0.37285053  0.27888921  0.67981388    -0.18000
H3117       H  0.33558908  0.29602787  0.71088187     0.20000
H3118       H  0.33970576  0.22326025  0.70022823     0.18400
H3119       H  0.29696901  0.22552505  0.73322531     0.18300
H3120       H  0.37719988  0.29409626  0.67695679     0.14200
C3121       C  0.17002980  0.61928418  0.01092110     0.29700
C3122       C  0.17517034  0.63925498  0.01263399    -0.36700
C3123       C  0.15607538  0.65196406  0.01181814     0.15600
C3124       C  0.13337877  0.64550266  0.01024995     0.21500
C3125       C  0.12823604  0.62555380  0.00880321    -0.34800
C3126       C  0.14734078  0.61288546  0.00880721     0.15600
O3127       O  0.18524685  0.60510432  0.00718694    -0.26800
C3128       C  0.17212235  0.58946378  0.00237619     0.05300
C3129       C  0.14844424  0.59349849  0.00311159    -0.31700
O3130       O  0.11844563  0.65982657  0.00630550    -0.23500
C3131       C  0.13171676  0.67568471  0.00524160    -0.03500
C3132       C  0.15525696  0.67163956  0.00839798    -0.18000
H3133       H  0.19288650  0.64456745  0.01248874     0.20000
H3134       H  0.11065725  0.62034076  0.00574212     0.18400
H3135       H  0.13418752  0.58382310  0.99797103     0.18300
H3136       H  0.16975450  0.68157451  0.00604996     0.14200
C3137       C  0.06462759  0.50263572  0.81874130     0.29700
C3138       C  0.08395903  0.49229898  0.82853631    -0.36700
C3139       C  0.10180438  0.50352376  0.84038092     0.15600
C3140       C  0.10050944  0.52348935  0.84315080     0.21500
C3141       C  0.08117556  0.53383867  0.83337141    -0.34800
C3142       C  0.06353573  0.52265161  0.82094494     0.15600
O3143       O  0.04685389  0.49523969  0.80482566    -0.26800
C3144       C  0.03430865  0.51072179  0.79786193     0.05300
C3145       C  0.04382114  0.52816363  0.80738084    -0.31700
O3146       O  0.11885747  0.53093146  0.85586808    -0.23500
C3147       C  0.13222814  0.51555022  0.86076696    -0.03500
C3148       C  0.12255429  0.49814012  0.85146766    -0.18000
H3149       H  0.08525091  0.47665840  0.82642223     0.20000
H3150       H  0.08014475  0.54952565  0.83488762     0.18400
H3151       H  0.03778211  0.54281768  0.80341674     0.18300
H3152       H  0.12927088  0.48354213  0.85397304     0.14200
C3153       C  0.23062950  0.36636745  0.87171426     0.29700
C3154       C  0.22853433  0.38573989  0.86250940    -0.36700
C3155       C  0.22902689  0.40006197  0.88373265     0.15600
C3156       C  0.23179917  0.39565900  0.91201215     0.21500
C3157       C  0.23366230  0.37629704  0.92121115    -0.34800
C3158       C  0.23274996  0.36196871  0.90007450     0.15600
O3159       O  0.22997053  0.35064813  0.85563344    -0.26800
C3160       C  0.23140729  0.33598339  0.87396964     0.05300
C3161       C  0.23302176  0.34217526  0.90193248    -0.31700
O3162       O  0.23138728  0.41126042  0.92831868    -0.23500
C3163       C  0.22799193  0.42587783  0.91033394    -0.03500
C3164       C  0.22637007  0.41975777  0.88228990    -0.18000
H3165       H  0.22624402  0.38936594  0.84041022     0.20000
H3166       H  0.23525731  0.37263714  0.94338603     0.18400
H3167       H  0.23399780  0.33334793  0.92085515     0.18300
H3168       H  0.22336417  0.42853865  0.86364262     0.14200
C3169       C  0.16997931  0.11713793  0.50961217     0.29700
C3170       C  0.17545590  0.13703488  0.51081406    -0.36700
C3171       C  0.15658520  0.14990094  0.50924545     0.15600
C3172       C  0.13381974  0.14365138  0.50725956     0.21500
C3173       C  0.12834852  0.12378006  0.50625990    -0.34800
C3174       C  0.14721922  0.11094568  0.50725412     0.15600
O3175       O  0.18498141  0.10274592  0.50686500    -0.26800
C3176       C  0.17162419  0.08720654  0.50251001     0.05300
C3177       C  0.14802296  0.09145624  0.50262611    -0.31700
O3178       O  0.11915035  0.15808271  0.50299459    -0.23500
C3179       C  0.13268263  0.17377319  0.50207642    -0.03500
C3180       C  0.15611243  0.16955759  0.50578884    -0.18000
H3181       H  0.19325758  0.14214282  0.51104116     0.20000
H3182       H  0.11072973  0.11871066  0.50303321     0.18400
H3183       H  0.13366727  0.08182306  0.49772663     0.18300
H3184       H  0.17076497  0.17939137  0.50406807     0.14200
C3185       C  0.02961729  0.26070245  0.23887814     0.29700
C3186       C  0.04760495  0.26805326  0.25589231    -0.36700
C3187       C  0.04745000  0.26208115  0.28425898     0.15600
C3188       C  0.03072568  0.24971432  0.29502681     0.21500
C3189       C  0.01265628  0.24246406  0.27803768    -0.34800
C3190       C  0.01282094  0.24842169  0.24968454     0.15600
O3191       O  0.02644037  0.26444007  0.21186068    -0.26800
C3192       C  0.00736511  0.25445427  0.20519472     0.05300
C3193       C  0.99809342  0.24417262  0.22790664    -0.31700
O3194       O  0.03407288  0.24575701  0.32197397    -0.23500
C3195       C  0.05314774  0.25574087  0.32871558    -0.03500
C3196       C  0.06223305  0.26623364  0.30604940    -0.18000
H3197       H  0.06081638  0.27771093  0.24755792     0.20000
H3198       H  0.99945402  0.23278550  0.28633803     0.18400
H3199       H  0.98268411  0.23511785  0.22835890     0.18300
H3200       H  0.07757507  0.27536681  0.30562249     0.14200
C3201       C  0.98829222  0.26708070  0.56314574     0.29700
C3202       C  0.97143574  0.27928427  0.57495768    -0.36700
C3203       C  0.95296487  0.26990041  0.58856449     0.15600
C3204       C  0.95104290  0.24989727  0.59013208     0.21500
C3205       C  0.96808734  0.23770037  0.57862658    -0.34800
C3206       C  0.98676423  0.24708678  0.56535699     0.15600
O3207       O  0.00658325  0.27273241  0.54865130    -0.26800
C3208       C  0.01711020  0.25618270  0.54183506     0.05300
C3209       C  0.00569152  0.23972457  0.55182592    -0.31700
O3210       O  0.93247840  0.24425714  0.60422326    -0.23500
C3211       C  0.92256160  0.26086294  0.61198617    -0.03500
C3212       C  0.93454202  0.27729681  0.60287526    -0.18000
H3213       H  0.97264871  0.29497729  0.57363053     0.20000
H3214       H  0.96691469  0.22201298  0.58003976     0.18400
H3215       H  0.01014349  0.22460286  0.54852721     0.18300
H3216       H  0.93057709  0.29243741  0.60690211     0.14200
C3217       C  0.24112445  0.24081986  0.31668081     0.29700
C3218       C  0.22324360  0.22874763  0.32676224    -0.36700
C3219       C  0.20380451  0.23822982  0.33813170     0.15600
C3220       C  0.20190317  0.25822713  0.33912527     0.21500
C3221       C  0.21995511  0.27030554  0.32938233    -0.34800
C3222       C  0.23961273  0.26081247  0.31851537     0.15600
O3223       O  0.26018763  0.23505150  0.30371926    -0.26800
C3224       C  0.27132530  0.25153039  0.29765307     0.05300
C3225       C  0.25945894  0.26803593  0.30666419    -0.31700
O3226       O  0.18253010  0.26397882  0.35150962    -0.23500
C3227       C  0.17198126  0.24745723  0.35884805    -0.03500
C3228       C  0.18444430  0.23097649  0.35099524    -0.18000
H3229       H  0.22440562  0.21304742  0.32578501     0.20000
H3230       H  0.21882145  0.28600512  0.33039639     0.18400
H3231       H  0.26394830  0.28313541  0.30303118     0.18300
H3232       H  0.18038291  0.21589362  0.35541921     0.14200
C3233       C  0.17256110  0.24610439  0.66176155     0.29700
C3234       C  0.17863430  0.24732176  0.63304596    -0.36700
C3235       C  0.16013154  0.24683155  0.61373159     0.15600
C3236       C  0.13724481  0.24491725  0.62204180     0.21500
C3237       C  0.13114918  0.24396104  0.65075947    -0.34800
C3238       C  0.14961917  0.24480785  0.67009428     0.15600
O3239       O  0.18701511  0.24667362  0.68342315    -0.26800
C3240       C  0.17312187  0.24606622  0.70592073     0.05300
C3241       C  0.14968215  0.24495409  0.69891167    -0.31700
O3242       O  0.12274139  0.24484044  0.60043339    -0.23500
C3243       C  0.13648662  0.24704518  0.57802168    -0.03500
C3244       C  0.15991721  0.24839493  0.58501075    -0.18000
H3245       H  0.19650756  0.24882762  0.62625784     0.20000
H3246       H  0.11323338  0.24292157  0.65756088     0.18400
H3247       H  0.13488962  0.24440648  0.71303498     0.18300
H3248       H  0.17459381  0.25032872  0.57095597     0.14200
C3249       C  0.16846913  0.64424219  0.27479734     0.29700
C3250       C  0.17333598  0.62423523  0.27404490    -0.36700
C3251       C  0.15407437  0.61165369  0.27506825     0.15600
C3252       C  0.13144191  0.61822184  0.27598528     0.21500
C3253       C  0.12655974  0.63825462  0.27648792    -0.34800
C3254       C  0.14586453  0.65084366  0.27623473     0.15600
O3255       O  0.18389103  0.65834611  0.27817479    -0.26800
C3256       C  0.17104288  0.67419870  0.28201406     0.05300
C3257       C  0.14728031  0.67037034  0.28105112    -0.31700
O3258       O  0.11627611  0.60396125  0.27995001    -0.23500
C3259       C  0.12938114  0.58806185  0.28175198    -0.03500
C3260       C  0.15300416  0.59204011  0.27897576    -0.18000
H3261       H  0.19097652  0.61883762  0.27467727     0.20000
H3262       H  0.10901369  0.64362570  0.27892671     0.18400
H3263       H  0.13316884  0.68027651  0.28559338     0.18300
H3264       H  0.16738538  0.58207966  0.28159605     0.14200
C3265       C  0.03108279  0.51181705  0.48965672     0.29700
C3266       C  0.01370571  0.51971445  0.50698418    -0.36700
C3267       C  0.01176525  0.51162390  0.53406706     0.15600
C3268       C  0.02597797  0.49680512  0.54338396     0.21500
C3269       C  0.04339508  0.48894726  0.52606139    -0.34800
C3270       C  0.04535432  0.49704330  0.49897792     0.15600
O3271       O  0.03565321  0.51698161  0.46347208    -0.26800
C3272       C  0.05309156  0.50541555  0.45586138     0.05300
C3273       C  0.05995280  0.49271546  0.47713526    -0.31700
O3274       O  0.02132806  0.49157930  0.56955464    -0.23500
C3275       C  0.00391545  0.50317838  0.57713793    -0.03500
C3276       C  0.99718640  0.51595560  0.55588910    -0.18000
H3277       H  0.00247288  0.53131886  0.49981852     0.20000
H3278       H  0.05462283  0.47733988  0.53321474     0.18400
H3279       H  0.07340976  0.48175582  0.47644473     0.18300
H3280       H  0.98381840  0.52699286  0.55660942     0.14200
C3281       C  0.98375880  0.51322924  0.22020149     0.29700
C3282       C  0.96486713  0.52403710  0.21002654    -0.36700
C3283       C  0.94772647  0.51341669  0.19562380     0.15600
C3284       C  0.94921369  0.49358047  0.19137067     0.21500
C3285       C  0.96783156  0.48274593  0.20197057    -0.34800
C3286       C  0.98486481  0.49332987  0.21645575     0.15600
O3287       O  0.00167741  0.52009389  0.23446858    -0.26800
C3288       C  0.01426339  0.50434489  0.24004851     0.05300
C3289       C  0.00461620  0.48729171  0.22940036    -0.31700
O3290       O  0.93200405  0.48674321  0.17600039    -0.23500
C3291       C  0.91912683  0.50232630  0.17063124    -0.03500
C3292       C  0.92794380  0.51934744  0.18242962    -0.18000
H3293       H  0.96369261  0.53961936  0.21297148     0.20000
H3294       H  0.96906992  0.46717959  0.19887150     0.18400
H3295       H  0.01098555  0.47255306  0.23150992     0.18300
H3296       H  0.92131815  0.53401078  0.18044026     0.14200
C3297       C  0.15249195  0.51711120  0.17012198     0.29700
C3298       C  0.17236878  0.51690299  0.15297379    -0.36700
C3299       C  0.16850338  0.51854896  0.12379678     0.15600
C3300       C  0.14655321  0.51995618  0.11221941     0.21500
C3301       C  0.12670279  0.52080619  0.12945870    -0.34800
C3302       C  0.13060353  0.51943016  0.15868936     0.15600
O3303       O  0.15202375  0.51479568  0.19778624    -0.26800
C3304       C  0.12959200  0.51602459  0.20423398     0.05300
C3305       C  0.11543472  0.51904463  0.18080865    -0.31700
O3306       O  0.14688014  0.51955306  0.08430238    -0.23500
C3307       C  0.16936252  0.51825292  0.07797123    -0.03500
C3308       C  0.18363196  0.51782613  0.10168897    -0.18000
H3309       H  0.18960160  0.51509005  0.16172165     0.20000
H3310       H  0.10939952  0.52194589  0.12067258     0.18400
H3311       H  0.09668455  0.52014597  0.18014221     0.18300
H3312       H  0.20232433  0.51622011  0.10246949     0.14200
C3313       C  0.06706719  0.36598628  0.41262072     0.29700
C3314       C  0.06532968  0.38542092  0.42157627    -0.36700
C3315       C  0.06598656  0.39957060  0.40014721     0.15600
C3316       C  0.06767719  0.39491133  0.37181400     0.21500
C3317       C  0.06944009  0.37550522  0.36289237    -0.34800
C3318       C  0.06933477  0.36140575  0.38432987     0.15600
O3319       O  0.06810458  0.35047681  0.42906974    -0.26800
C3320       C  0.07135095  0.33583092  0.41104756     0.05300
C3321       C  0.07234286  0.34179737  0.38298178    -0.31700
O3322       O  0.06920905  0.41043020  0.35548202    -0.23500
C3323       C  0.06883163  0.42524335  0.37358310    -0.03500
C3324       C  0.06682085  0.41936434  0.40166195    -0.18000
H3325       H  0.06436470  0.38927004  0.44374204     0.20000
H3326       H  0.07161069  0.37170662  0.34083614     0.18400
H3327       H  0.07528723  0.33297440  0.36436470     0.18300
H3328       H  0.06680044  0.42835824  0.42045706     0.14200
C3329       C  0.38519326  0.89342657  0.02756237     0.29700
C3330       C  0.38077469  0.87331286  0.02741148    -0.36700
C3331       C  0.40037661  0.86115673  0.02795094     0.15600
C3332       C  0.42284855  0.86823431  0.02817522     0.21500
C3333       C  0.42725075  0.88832984  0.02819388    -0.34800
C3334       C  0.40767145  0.90047587  0.02808742     0.15600
O3335       O  0.36955952  0.90733354  0.03074230    -0.26800
C3336       C  0.38222093  0.92347169  0.03335771     0.05300
C3337       C  0.40599174  0.92003566  0.03193594    -0.31700
O3338       O  0.43846776  0.85437308  0.03177934    -0.23500
C3339       C  0.42584745  0.83819240  0.03388602    -0.03500
C3340       C  0.40207408  0.84157763  0.03176878    -0.18000
H3341       H  0.36328464  0.86754695  0.02857372     0.20000
H3342       H  0.44470353  0.89409870  0.02994106     0.18400
H3343       H  0.41999338  0.93028942  0.03551272     0.18300
H3344       H  0.38804722  0.83126949  0.03485112     0.14200
C3345       C  0.54530755  0.76250532  0.28926685     0.29700
C3346       C  0.54684636  0.77020913  0.26180301    -0.36700
C3347       C  0.52992628  0.76379492  0.24245524     0.15600
C3348       C  0.51261541  0.75073703  0.24952825     0.21500
C3349       C  0.51110691  0.74301659  0.27694576    -0.34800
C3350       C  0.52802074  0.74940795  0.29625812     0.15600
O3351       O  0.55942498  0.76625949  0.31070819    -0.26800
C3352       C  0.55103152  0.75537171  0.33169055     0.05300
C3353       C  0.53149817  0.74465064  0.32381606    -0.31700
O3354       O  0.49861839  0.74677048  0.22808574    -0.23500
C3355       C  0.50709462  0.75742566  0.20692993    -0.03500
C3356       C  0.52657956  0.76827522  0.21472596    -0.18000
H3357       H  0.56032675  0.78043385  0.25588702     0.20000
H3358       H  0.49771492  0.73269673  0.28281318     0.18400
H3359       H  0.52143110  0.73461260  0.33655044     0.18300
H3360       H  0.53681339  0.77805983  0.20177244     0.14200
C3361       C  0.60361659  0.75622989  0.94227412     0.29700
C3362       C  0.58596089  0.76860523  0.95189611    -0.36700
C3363       C  0.56650925  0.75944831  0.96383250     0.15600
C3364       C  0.56471001  0.73949432  0.96640161     0.21500
C3365       C  0.58210993  0.72710142  0.95613497    -0.34800
C3366       C  0.60147862  0.73625931  0.94401778     0.15600
O3367       O  0.62322476  0.76168492  0.93027508    -0.26800
C3368       C  0.63371077  0.74500966  0.92402506     0.05300
C3369       C  0.62095296  0.72868317  0.93198461    -0.31700
O3370       O  0.54608496  0.73412781  0.98061490    -0.23500
C3371       C  0.53557789  0.75082318  0.98679695    -0.03500
C3372       C  0.54739090  0.76706901  0.97665661    -0.18000
H3373       H  0.58743480  0.78427840  0.95051497     0.20000
H3374       H  0.58084097  0.71143891  0.95798288     0.18400
H3375       H  0.62512021  0.71350694  0.92862362     0.18300
H3376       H  0.54339023  0.78226543  0.98012664     0.14200
C3377       C  0.31448775  0.76605457  0.21495091     0.29700
C3378       C  0.33008693  0.77828119  0.20070272    -0.36700
C3379       C  0.34976408  0.76926621  0.18930008     0.15600
C3380       C  0.35392351  0.74957004  0.19178234     0.21500
C3381       C  0.33806833  0.73725172  0.20563155    -0.34800
C3382       C  0.31824496  0.74626414  0.21689291     0.15600
O3383       O  0.29585921  0.77166741  0.22886775    -0.26800
C3384       C  0.28730040  0.75524874  0.23950527     0.05300
C3385       C  0.30036078  0.73891464  0.23255104    -0.31700
O3386       O  0.37365718  0.74433781  0.17976705    -0.23500
C3387       C  0.38209719  0.76089556  0.16929431    -0.03500
C3388       C  0.36793273  0.77685728  0.17459585    -0.18000
H3389       H  0.32728256  0.79380656  0.19906849     0.20000
H3390       H  0.34111829  0.72179150  0.20779612     0.18400
H3391       H  0.29782152  0.72405009  0.23948714     0.18300
H3392       H  0.37057015  0.79184640  0.16829891     0.14200
C3393       C  0.42241305  0.39281291  0.25918173     0.29700
C3394       C  0.42799529  0.37292368  0.26017493    -0.36700
C3395       C  0.40909208  0.35992086  0.25989117     0.15600
C3396       C  0.38626595  0.36606668  0.25934233     0.21500
C3397       C  0.38073029  0.38588335  0.25844487    -0.34800
C3398       C  0.39956014  0.39882611  0.25809604     0.15600
O3399       O  0.43719880  0.40735578  0.25552378    -0.26800
C3400       C  0.42355871  0.42278047  0.25192134     0.05300
C3401       C  0.40004629  0.41829077  0.25322537    -0.31700
O3402       O  0.37141718  0.35161741  0.25588997    -0.23500
C3403       C  0.38481855  0.33597236  0.25405716    -0.03500
C3404       C  0.40841759  0.34024974  0.25631683    -0.18000
H3405       H  0.44579838  0.36792286  0.25931170     0.20000
H3406       H  0.36298766  0.39082615  0.25620876     0.18400
H3407       H  0.38546429  0.42777483  0.24899965     0.18300
H3408       H  0.42295359  0.33049216  0.25334810     0.14200
C3409       C  0.50881114  0.51069092  0.03511057     0.29700
C3410       C  0.50795286  0.51926615  0.00824898    -0.36700
C3411       C  0.52454229  0.51273474  0.98874482     0.15600
C3412       C  0.54089601  0.49872836  0.99506579     0.21500
C3413       C  0.54166809  0.49006312  0.02188433    -0.34800
C3414       C  0.52509035  0.49661948  0.04141979     0.15600
O3415       O  0.49506936  0.51467963  0.05670386    -0.26800
C3416       C  0.50264984  0.50296240  0.07708098     0.05300
C3417       C  0.52129465  0.49142968  0.06873006    -0.31700
O3418       O  0.55496410  0.49508663  0.97364566    -0.23500
C3419       C  0.54746784  0.50695107  0.95339950    -0.03500
C3420       C  0.52856408  0.51820505  0.96163053    -0.18000
H3421       H  0.49533752  0.53033577  0.00296231     0.20000
H3422       H  0.55437694  0.47907927  0.02721491     0.18400
H3423       H  0.53069944  0.48076498  0.08105727     0.18300
H3424       H  0.51920986  0.52895107  0.94939560     0.14200
C3425       C  0.35130516  0.49189342  0.09033119     0.29700
C3426       C  0.33247250  0.48163698  0.07893638    -0.36700
C3427       C  0.31561256  0.49287091  0.06527785     0.15600
C3428       C  0.31699793  0.51286598  0.06298678     0.21500
C3429       C  0.33611224  0.52312533  0.07393411    -0.34800
C3430       C  0.35309824  0.51183976  0.08749785     0.15600
O3431       O  0.36844239  0.48437198  0.10519942    -0.26800
C3432       C  0.38158334  0.49966132  0.11167893     0.05300
C3433       C  0.37298543  0.51711375  0.10105360    -0.31700
O3434       O  0.29913904  0.52032947  0.04922172    -0.23500
C3435       C  0.28634723  0.50482819  0.04252641    -0.03500
C3436       C  0.29580147  0.48741680  0.05193449    -0.18000
H3437       H  0.33094224  0.46599355  0.08083530     0.20000
H3438       H  0.33757918  0.53878037  0.07216161     0.18400
H3439       H  0.37986398  0.53164718  0.10399520     0.18300
H3440       H  0.28923147  0.47280283  0.04879038     0.14200
C3441       C  0.60395260  0.50033452  0.33989700     0.29700
C3442       C  0.58540356  0.48857697  0.33079514    -0.36700
C3443       C  0.56691681  0.49827966  0.31759420     0.15600
C3444       C  0.56687850  0.51813428  0.31321937     0.21500
C3445       C  0.58521216  0.52991751  0.32269866    -0.34800
C3446       C  0.60352596  0.52025198  0.33621302     0.15600
O3447       O  0.62269123  0.49444385  0.35351712    -0.26800
C3448       C  0.63428301  0.51084046  0.35883592     0.05300
C3449       C  0.62312907  0.52732811  0.34859610    -0.31700
O3450       O  0.54865514  0.52398769  0.29870770    -0.23500
C3451       C  0.53662773  0.50772792  0.29411374    -0.03500
C3452       C  0.54705810  0.49128722  0.30557864    -0.18000
H3453       H  0.58538001  0.47296712  0.33379617     0.20000
H3454       H  0.58525892  0.54552173  0.31960879     0.18400
H3455       H  0.62833866  0.54239136  0.35086286     0.18300
H3456       H  0.54154686  0.47627114  0.30375044     0.14200
C3457       C  0.48799164  0.61454331  0.15966498     0.29700
C3458       C  0.48754882  0.63378620  0.16961399    -0.36700
C3459       C  0.48735412  0.64838458  0.14888341     0.15600
C3460       C  0.48811618  0.64435149  0.12030045     0.21500
C3461       C  0.48836593  0.62508830  0.11033158    -0.34800
C3462       C  0.48799443  0.61046715  0.13107882     0.15600
O3463       O  0.48710555  0.59869887  0.17536377    -0.26800
C3464       C  0.48624465  0.58424984  0.15665320     0.05300
C3465       C  0.48657366  0.59070304  0.12873865    -0.31700
O3466       O  0.48709133  0.66022186  0.10464351    -0.23500
C3467       C  0.48527350  0.67457949  0.12342768    -0.03500
C3468       C  0.48530815  0.66807317  0.15128132    -0.18000
H3469       H  0.48670981  0.63712374  0.19196103     0.20000
H3470       H  0.48816616  0.62174249  0.08796450     0.18400
H3471       H  0.48543014  0.58210563  0.10960509     0.18300
H3472       H  0.48358331  0.67659020  0.17042199     0.14200
C3473       C  0.40033852  0.90078476  0.75414059     0.29700
C3474       C  0.37982008  0.88965406  0.75382909    -0.36700
C3475       C  0.38261930  0.86940076  0.75538168     0.15600
C3476       C  0.40420195  0.86073866  0.75650869     0.21500
C3477       C  0.42468100  0.87190207  0.75761610    -0.34800
C3478       C  0.42186611  0.89216954  0.75664381     0.15600
O3479       O  0.40184462  0.91965339  0.74955964    -0.26800
C3480       C  0.42457086  0.92332740  0.74991598     0.05300
C3481       C  0.43792560  0.90678461  0.75440980    -0.31700
O3482       O  0.40302298  0.84168359  0.75354997    -0.23500
C3483       C  0.38037294  0.83797911  0.75136407    -0.03500
C3484       C  0.36680368  0.85467224  0.75252896    -0.18000
H3485       H  0.36292992  0.89627746  0.75107947     0.20000
H3486       H  0.44168473  0.86521891  0.75772365     0.18400
H3487       H  0.45664218  0.90546096  0.75342695     0.18300
H3488       H  0.34830419  0.85590995  0.74886398     0.14200
C3489       C  0.29301663  0.74939962  0.53850437     0.29700
C3490       C  0.29412272  0.74128167  0.51135736    -0.36700
C3491       C  0.27708968  0.74747812  0.49221159     0.15600
C3492       C  0.26004391  0.76075174  0.49911696     0.21500
C3493       C  0.25887638  0.76885061  0.52633317    -0.34800
C3494       C  0.27597639  0.76266203  0.54550724     0.15600
O3495       O  0.30727504  0.74571306  0.55971488    -0.26800
C3496       C  0.29928179  0.75678695  0.58061923     0.05300
C3497       C  0.27983668  0.76762814  0.57293740    -0.31700
O3498       O  0.24608809  0.76459058  0.47763905    -0.23500
C3499       C  0.25438198  0.75358725  0.45678608    -0.03500
C3500       C  0.27360169  0.74264420  0.46472903    -0.18000
H3501       H  0.30739906  0.73090735  0.50551485     0.20000
H3502       H  0.24566225  0.77929745  0.53212099     0.18400
H3503       H  0.26994986  0.77768643  0.58577925     0.18300
H3504       H  0.28367632  0.73267030  0.45196620     0.14200
C3505       C  0.45351139  0.76783409  0.59556641     0.29700
C3506       C  0.47147456  0.77875433  0.58336377    -0.36700
C3507       C  0.48942804  0.76804269  0.57090041     0.15600
C3508       C  0.48992624  0.74795857  0.57079380     0.21500
C3509       C  0.47186235  0.73702486  0.58293010    -0.34800
C3510       C  0.45365154  0.74775118  0.59494261     0.15600
O3511       O  0.43522408  0.77488129  0.60873258    -0.26800
C3512       C  0.42329046  0.75913181  0.61627973     0.05300
C3513       C  0.43381454  0.74182102  0.60810972    -0.31700
O3514       O  0.50799401  0.74099309  0.55692757    -0.23500
C3515       C  0.51903391  0.75684412  0.54784207    -0.03500
C3516       C  0.50827994  0.77406096  0.55598034    -0.18000
H3517       H  0.47132157  0.79450229  0.58329556     0.20000
H3518       H  0.47181523  0.72128059  0.58260513     0.18400
H3519       H  0.42813227  0.72707045  0.61227426     0.18300
H3520       H  0.51317897  0.78884074  0.55070237     0.14200
C3521       C  0.20294328  0.73987848  0.84348862     0.29700
C3522       C  0.22205522  0.72918121  0.83378835    -0.36700
C3523       C  0.24012681  0.74006544  0.82169810     0.15600
C3524       C  0.23962015  0.76010115  0.81960626     0.21500
C3525       C  0.22039022  0.77076058  0.82901447    -0.34800
C3526       C  0.20213832  0.75985558  0.84063838     0.15600
O3527       O  0.18457501  0.73282447  0.85665874    -0.26800
C3528       C  0.17164679  0.74846315  0.86175264     0.05300
C3529       C  0.18162916  0.76564805  0.85205491    -0.31700
O3530       O  0.25791232  0.76720696  0.80633056    -0.23500
C3531       C  0.27016173  0.75149557  0.79963151    -0.03500
C3532       C  0.25995836  0.73422406  0.80870592    -0.18000
H3533       H  0.22273570  0.71348350  0.83540118     0.20000
H3534       H  0.21957864  0.78643323  0.82706222     0.18400
H3535       H  0.17538994  0.78037749  0.85475130     0.18300
H3536       H  0.26566845  0.71947104  0.80478364     0.14200
C3537       C  0.38445735  0.76057131  0.87444287     0.29700
C3538       C  0.37838711  0.75998814  0.90324661    -0.36700
C3539       C  0.39687871  0.76119008  0.92258528     0.15600
C3540       C  0.41973027  0.76322951  0.91421126     0.21500
C3541       C  0.42581868  0.76346828  0.88544462    -0.34800
C3542       C  0.40739437  0.76185028  0.86611373     0.15600
O3543       O  0.37002058  0.75979745  0.85271698    -0.26800
C3544       C  0.38395339  0.76018733  0.83019590     0.05300
C3545       C  0.40736734  0.76133248  0.83728510    -0.31700
O3546       O  0.43420981  0.76425966  0.93583786    -0.23500
C3547       C  0.42049883  0.76252915  0.95838896    -0.03500
C3548       C  0.39711807  0.76051331  0.95140729    -0.18000
H3549       H  0.36052017  0.75857561  0.91010266     0.20000
H3550       H  0.44370701  0.76468569  0.87860326     0.18400
H3551       H  0.42216042  0.76205108  0.82318292     0.18300
H3552       H  0.38247351  0.75876584  0.96555883     0.14200
C3553       C  0.38619336  0.39427786  0.52327851     0.29700
C3554       C  0.38241140  0.37423727  0.51936411    -0.36700
C3555       C  0.40194831  0.36217884  0.52257201     0.15600
C3556       C  0.42373648  0.36935469  0.52902177     0.21500
C3557       C  0.42751527  0.38932774  0.53287675    -0.34800
C3558       C  0.40802587  0.40132682  0.52979742     0.15600
O3559       O  0.37003298  0.40792382  0.52451270    -0.26800
C3560       C  0.38175214  0.42385762  0.53190399     0.05300
C3561       C  0.40540786  0.42056492  0.53540302    -0.31700
O3562       O  0.43896616  0.35546697  0.53403693    -0.23500
C3563       C  0.42691004  0.33912212  0.53061023    -0.03500
C3564       C  0.40374504  0.34240383  0.52360908    -0.18000
H3565       H  0.36522844  0.36836006  0.51559638     0.36000
H3566       H  0.44424000  0.39501766  0.53934961     0.18400
H3567       H  0.41845031  0.43060462  0.54318155     0.18300
H3568       H  0.38987466  0.33180500  0.52188834     0.14200
C3569       C  0.25789723  0.49931957  0.78587416     0.29700
C3570       C  0.25534056  0.49255116  0.75800024    -0.36700
C3571       C  0.27225025  0.49883787  0.73853211     0.15600
C3572       C  0.29045929  0.51092613  0.74588119     0.21500
C3573       C  0.29305581  0.51762058  0.77373728    -0.34800
C3574       C  0.27617572  0.51134594  0.79316514     0.15600
O3575       O  0.24381776  0.49574013  0.80742072    -0.26800
C3576       C  0.25324692  0.50566042  0.82875686     0.05300
C3577       C  0.27345852  0.51551383  0.82104618    -0.31700
O3578       O  0.30433367  0.51488037  0.72431752    -0.23500
C3579       C  0.29491717  0.50516207  0.70280700    -0.03500
C3580       C  0.27489548  0.49497219  0.71047855    -0.18000
H3581       H  0.24110457  0.48314187  0.75186604     0.20000
H3582       H  0.30720515  0.52713165  0.77983881     0.18400
H3583       H  0.28434611  0.52475629  0.83404228     0.18300
H3584       H  0.26401207  0.48584255  0.69731304     0.14200
C3585       C  0.45178817  0.49477295  0.68547056     0.29700
C3586       C  0.46973443  0.48390789  0.69757446    -0.36700
C3587       C  0.48697048  0.49457333  0.71154134     0.15600
C3588       C  0.48682478  0.51462240  0.71326707     0.21500
C3589       C  0.46872069  0.52554880  0.70121640    -0.34800
C3590       C  0.45122381  0.51480764  0.68750891     0.15600
O3591       O  0.43388365  0.48761887  0.67164782    -0.26800
C3592       C  0.42140892  0.50319121  0.66499745     0.05300
C3593       C  0.43129358  0.52056560  0.67432214    -0.31700
O3594       O  0.50438134  0.52144540  0.72831991    -0.23500
C3595       C  0.51568168  0.50550355  0.73645059    -0.03500
C3596       C  0.50562546  0.48840946  0.72658390    -0.18000
H3597       H  0.47003540  0.46817863  0.69655255     0.20000
H3598       H  0.46809618  0.54124477  0.70286805     0.18400
H3599       H  0.42491482  0.53523095  0.67139523     0.18300
H3600       H  0.51088506  0.47356718  0.73072719     0.14200
C3601       C  0.24032450  0.50007339  0.46024438     0.29700
C3602       C  0.22055099  0.48952093  0.45197109    -0.36700
C3603       C  0.20219454  0.50048059  0.44075450     0.15600
C3604       C  0.20338498  0.52040068  0.43735055     0.21500
C3605       C  0.22308414  0.53096501  0.44576878    -0.34800
C3606       C  0.24129441  0.52004168  0.45734227     0.15600
O3607       O  0.25868797  0.49299463  0.47335589    -0.26800
C3608       C  0.27152264  0.50864503  0.47906360     0.05300
C3609       C  0.26158571  0.52585123  0.46944173    -0.31700
O3610       O  0.18478546  0.52755007  0.42486790    -0.23500
C3611       C  0.17130923  0.51205485  0.42062620    -0.03500
C3612       C  0.18118109  0.49483519  0.43032469    -0.18000
H3613       H  0.21940429  0.47390061  0.45453645     0.20000
H3614       H  0.22407320  0.54662540  0.44365050     0.18400
H3615       H  0.26761390  0.54060324  0.47280510     0.18300
H3616       H  0.17453154  0.48016124  0.42820274     0.14200
C3617       C  0.38466046  0.49818789  0.41140917     0.29700
C3618       C  0.37880387  0.49811659  0.38257381    -0.36700
C3619       C  0.39747108  0.49911794  0.36348230     0.15600
C3620       C  0.42037628  0.49980498  0.37208480     0.21500
C3621       C  0.42620589  0.50022011  0.40093167    -0.34800
C3622       C  0.40752087  0.49951656  0.42002421     0.15600
O3623       O  0.37001919  0.49731559  0.43290664    -0.26800
C3624       C  0.38368444  0.49836857  0.45558373     0.05300
C3625       C  0.40714734  0.49986588  0.44882679    -0.31700
O3626       O  0.43504869  0.50018049  0.35056444    -0.23500
C3627       C  0.42131075  0.50004993  0.32789843    -0.03500
C3628       C  0.39779826  0.49950731  0.33468354    -0.18000
H3629       H  0.36094134  0.49736570  0.37550748     0.20000
H3630       H  0.44405886  0.50106053  0.40800944     0.18400
H3631       H  0.42178102  0.50092551  0.46312014     0.18300
H3632       H  0.38311634  0.49916944  0.32039123     0.14200
C3633       C  0.31597701  0.61033347  0.64562326     0.29700
C3634       C  0.31746077  0.62297883  0.66885590    -0.36700
C3635       C  0.31679524  0.64292977  0.66264217     0.15600
C3636       C  0.31534676  0.64998985  0.63537170     0.21500
C3637       C  0.31342480  0.63731260  0.61214271    -0.34800
C3638       C  0.31356955  0.61733473  0.61842212     0.15600
O3639       O  0.31762236  0.59121488  0.64648361    -0.26800
C3640       C  0.31578298  0.58582614  0.61954561     0.05300
C3641       C  0.31304695  0.60144960  0.60112663    -0.31700
O3642       O  0.31662510  0.66917831  0.63435231    -0.23500
C3643       C  0.31833062  0.67447758  0.66138511    -0.03500
C3644       C  0.31843349  0.65875059  0.67990382    -0.18000
H3645       H  0.31944689  0.61763232  0.69024864     0.20000
H3646       H  0.31232857  0.64264263  0.59064663     0.18400
H3647       H  0.31220715  0.60117775  0.57825687     0.18300
H3648       H  0.32050452  0.65894932  0.70265699     0.14200
loop_ 
_geom_bond_atom_site_label_1 
_geom_bond_atom_site_label_2 
_geom_bond_distance 
_geom_bond_site_symmetry_2 
_ccdc_geom_bond_type 
Zr1           O2   2.441       .  S
Zr1           O3   2.460       .  S
Zr1           O4   2.436       .  S
Zr1           O7   2.442       .  S
Zr1           O9   2.378       .  S
Zr1          O10   2.386       .  S
Zr1          O11   2.416       .  S
Zr1          O12   2.398       .  S
O2           H58   0.990       .  S
O2           H66   0.990       .  S
O3           C23   1.287       .  A
O4           C25   1.282       .  A
O5          Zr15   2.427       .  S
O5           C24   1.282       .  A
O6          Zr14   2.431       .  S
O6           C25   1.283       .  A
O7           C24   1.285       .  A
O8          Zr16   2.414       .  S
O8           C23   1.280       .  A
O9          Zr14   2.395       .  S
O9          Zr16   2.383       .  S
O10         Zr15   2.391       .  S
O10         Zr16   2.384       .  S
O10          H45   0.967       .  S
O11         Zr14   2.398       .  S
O11         Zr31   2.400       .  S
O11          H48   0.964       .  S
O12         Zr15   2.383       .  S
O12         Zr31   2.384       .  S
Zr13         O38   2.445       .  S
Zr13         O32   2.438       .  S
Zr13         O40   2.455       .  S
Zr13         O28   2.446       .  S
Zr13         O19   2.412       .  S
Zr13         O20   2.405       .  S
Zr13         O21   2.385       .  S
Zr13         O22   2.388       .  S
Zr14         O33   2.438       .  S
Zr14         O26   2.434       .  S
Zr14         O27   2.423       .  S
Zr14         O20   2.395       .  S
Zr14         O21   2.388       .  S
Zr15         O17   2.439       .  S
Zr15         O39   2.437       .  S
Zr15         O41   2.421       .  S
Zr15         O19   2.393       .  S
Zr15         O22   2.396       .  S
Zr16         O42   2.435       .  S
Zr16         O43   2.437       .  S
Zr16         O18   2.438       .  S
Zr16         O19   2.403       .  S
Zr16         O20   2.390       .  S
O17          H54   0.990       .  S
O18          H49   0.990       .  S
O18          H63   0.990       .  S
O20          H46   0.966       .  S
O21         Zr31   2.373       .  S
O22         Zr31   2.366       .  S
O22          H47   0.965       .  S
C23        C3579   1.479       .  S
C24        C3592   1.467       .  S
C25        C3640   1.469       .  S
O26          H62   0.990       .  S
O27          C29   1.283       .  A
O28          C29   1.286       .  A
C29        C3608   1.468       .  S
O30         Zr31   2.438       .  S
O30          H59   0.990       .  S
Zr31         O34   2.435       .  S
Zr31         O35   2.441       .  S
Zr31         O36   2.434       .  S
O32          C37   1.285       .  A
O33          H50   0.990       .  S
O33          H65   0.990       .  S
O34          H51   0.990       .  S
O35          H55   0.990       .  S
O35          H64   0.990       .  S
O36          C37   1.284       .  A
C37        C3624   1.473       .  S
O38          H57   0.990       .  S
O38          H61   0.990       .  S
O39          H53   0.990       .  S
O39          H60   0.991       .  S
O40          C44   1.287       .  A
O41          C44   1.281       .  A
O42          H52   0.990       .  S
O43          H56   0.990       .  S
C44        C3560   1.470       .  S
Zr67         O68   2.442       .  S
Zr67         O69   2.458       .  S
Zr67         O70   2.447       .  S
Zr67         O73   2.436       .  S
Zr67         O75   2.378       .  S
Zr67         O76   2.387       .  S
Zr67         O77   2.415       .  S
Zr67         O78   2.404       .  S
O68         H124   0.990       .  S
O68         H132   0.991       .  S
O69          C89   1.287       .  A
O70          C91   1.283       .  A
O71         Zr81   2.419       .  S
O71          C90   1.281       .  A
O72         Zr80   2.438       .  S
O72          C91   1.284       .  A
O73          C90   1.284       .  A
O74         Zr82   2.405       .  S
O74          C89   1.278       .  A
O75         Zr80   2.393       .  S
O75         Zr82   2.387       .  S
O76         Zr81   2.393       .  S
O76         Zr82   2.381       .  S
O76         H111   0.967       .  S
O77         Zr80   2.394       .  S
O77         Zr97   2.404       .  S
O77         H114   0.964       .  S
O78         Zr81   2.382       .  S
O78         Zr97   2.391       .  S
Zr79        O104   2.439       .  S
Zr79         O98   2.436       .  S
Zr79        O106   2.460       .  S
Zr79         O94   2.451       .  S
Zr79         O85   2.404       .  S
Zr79         O86   2.410       .  S
Zr79         O87   2.386       .  S
Zr79         O88   2.385       .  S
Zr80         O99   2.435       .  S
Zr80         O92   2.437       .  S
Zr80         O93   2.412       .  S
Zr80         O86   2.406       .  S
Zr80         O87   2.396       .  S
Zr81         O83   2.437       .  S
Zr81        O105   2.436       .  S
Zr81        O107   2.416       .  S
Zr81         O85   2.393       .  S
Zr81         O88   2.393       .  S
Zr82        O108   2.435       .  S
Zr82        O109   2.436       .  S
Zr82         O84   2.438       .  S
Zr82         O85   2.394       .  S
Zr82         O86   2.384       .  S
O83         H120   0.990       .  S
O84         H115   0.990       .  S
O84         H129   0.990       .  S
O86         H112   0.964       .  S
O87         Zr97   2.373       .  S
O88         Zr97   2.367       .  S
O88         H113   0.966       .  S
C89        C3496   1.474       .  S
C90        C3512   1.465       .  S
C91        C3643   1.474       .  S
O92         H128   0.990       .  S
O93          C95   1.281       .  A
O94          C95   1.286       .  A
C95        C3531   1.463       .  S
O96         Zr97   2.439       .  S
O96         H125   0.990       .  S
Zr97        O100   2.436       .  S
Zr97        O101   2.439       .  S
Zr97        O102   2.446       .  S
O98         C103   1.283       .  A
O99         H116   0.990       .  S
O99         H131   0.990       .  S
O100        H117   0.990       .  S
O101        H121   0.990       .  S
O101        H130   0.990       .  S
O102        C103   1.286       .  A
C103       C3544   1.475       .  S
O104        H123   0.990       .  S
O104        H127   0.990       .  S
O105        H119   0.990       .  S
O105        H126   0.990       .  S
O106        C110   1.289       .  A
O107        C110   1.280       .  A
O108        H118   0.990       .  S
O109        H122   0.990       .  S
C110       C3483   1.469       .  S
Zr133       O134   2.442       .  S
Zr133       O135   2.447       .  S
Zr133       O136   2.442       .  S
Zr133       O139   2.422       .  S
Zr133       O141   2.378       .  S
Zr133       O142   2.389       .  S
Zr133       O143   2.407       .  S
Zr133       O144   2.406       .  S
O134        H190   0.990       .  S
O134        H198   0.991       .  S
O135        C155   1.285       .  A
O136        C157   1.283       .  A
O137       Zr147   2.433       .  S
O137        C156   1.283       .  A
O138       Zr146   2.434       .  S
O138        C157   1.283       .  A
O139        C156   1.282       .  A
O140       Zr148   2.405       .  S
O140        C155   1.278       .  A
O141       Zr146   2.395       .  S
O141       Zr148   2.388       .  S
O142       Zr147   2.388       .  S
O142       Zr148   2.378       .  S
O142        H177   0.967       .  S
O143       Zr146   2.396       .  S
O143       Zr163   2.397       .  S
O143        H180   0.964       .  S
O144       Zr147   2.389       .  S
O144       Zr163   2.397       .  S
Zr145       O170   2.440       .  S
Zr145       O164   2.443       .  S
Zr145       O172   2.454       .  S
Zr145       O160   2.449       .  S
Zr145       O151   2.411       .  S
Zr145       O152   2.408       .  S
Zr145       O153   2.381       .  S
Zr145       O154   2.390       .  S
Zr146       O165   2.438       .  S
Zr146       O158   2.434       .  S
Zr146       O159   2.417       .  S
Zr146       O152   2.404       .  S
Zr146       O153   2.394       .  S
Zr147       O149   2.436       .  S
Zr147       O171   2.439       .  S
Zr147       O173   2.416       .  S
Zr147       O151   2.395       .  S
Zr147       O154   2.400       .  S
Zr148       O174   2.437       .  S
Zr148       O175   2.437       .  S
Zr148       O150   2.437       .  S
Zr148       O151   2.394       .  S
Zr148       O152   2.386       .  S
O149        H186   0.991       .  S
O150        H181   0.990       .  S
O150        H195   0.990       .  S
O152        H178   0.964       .  S
O153       Zr163   2.372       .  S
O154       Zr163   2.370       .  S
O154        H179   0.966       .  S
C155       C3416   1.471       .  S
C156       C3432   1.468       .  S
C157       C3464   1.472       .  S
O158        H194   0.990       .  S
O159        C161   1.281       .  A
O160        C161   1.288       .  A
C161       C3451   1.468       .  S
O162       Zr163   2.439       .  S
O162        H191   0.991       .  S
Zr163       O166   2.437       .  S
Zr163       O167   2.439       .  S
Zr163       O168   2.431       .  S
O164        C169   1.284       .  A
O165        H182   0.990       .  S
O165        H197   0.990       .  S
O166        H183   0.990       .  S
O167        H187   0.990       .  S
O167        H196   0.990       .  S
O168        C169   1.283       .  A
C169       C3627   1.474       .  S
O170        H189   0.991       .  S
O170        H193   0.990       .  S
O171        H185   0.990       .  S
O171        H192   0.990       .  S
O172        C176   1.286       .  A
O173        C176   1.281       .  A
O174        H184   0.991       .  S
O175        H188   0.990       .  S
C176       C3400   1.467       .  S
Zr199       O200   2.441       .  S
Zr199       O201   2.465       .  S
Zr199       O202   2.457       .  S
Zr199       O205   2.445       .  S
Zr199       O207   2.377       .  S
Zr199       O208   2.388       .  S
Zr199       O209   2.419       .  S
Zr199       O210   2.408       .  S
O200        H256   0.990       .  S
O200        H264   0.990       .  S
O201        C221   1.288       .  A
O202        C223   1.287       .  A
O203       Zr213   2.425       .  S
O203        C222   1.283       .  A
O204       Zr212   2.421       .  S
O204        C223   1.281       .  A
O205        C222   1.285       .  A
O206       Zr214   2.408       .  S
O206        C221   1.279       .  A
O207       Zr212   2.395       .  S
O207       Zr214   2.385       .  S
O208       Zr213   2.389       .  S
O208       Zr214   2.383       .  S
O208        H243   0.967       .  S
O209       Zr212   2.399       .  S
O209       Zr229   2.404       .  S
O209        H246   0.965       .  S
O210       Zr213   2.384       .  S
O210       Zr229   2.387       .  S
Zr211       O236   2.441       .  S
Zr211       O230   2.438   1_554  S
Zr211       O238   2.459       .  S
Zr211       O226   2.454       .  S
Zr211       O217   2.408       .  S
Zr211       O218   2.409       .  S
Zr211       O219   2.385       .  S
Zr211       O220   2.388       .  S
Zr212       O231   2.437       .  S
Zr212       O224   2.436       .  S
Zr212       O225   2.420       .  S
Zr212       O218   2.398       .  S
Zr212       O219   2.391       .  S
Zr213       O215   2.437       .  S
Zr213       O237   2.433       .  S
Zr213       O239   2.418       .  S
Zr213       O217   2.389       .  S
Zr213       O220   2.395       .  S
Zr214       O240   2.433       .  S
Zr214       O241   2.436       .  S
Zr214       O216   2.439       .  S
Zr214       O217   2.399       .  S
Zr214       O218   2.382       .  S
O215        H252   0.990       .  S
O216        H247   0.991       .  S
O216        H261   0.990       .  S
O218        H244   0.965       .  S
O219       Zr229   2.377       .  S
O220       Zr229   2.366       .  S
O220        H245   0.966       .  S
C221       C3355   1.479       .  S
C222       C3387   1.471       .  S
C223       C3467   1.471       .  S
O224        H260   0.990       .  S
O225        C227   1.282       .  A
O226        C227   1.288       .  A
C227       C3371   1.468   1_554  S
O228       Zr229   2.439       .  S
O228        H257   0.990       .  S
Zr229       O232   2.438       .  S
Zr229       O233   2.440       .  S
Zr229       O234   2.435       .  S
O230        C235   1.284       .  A
O231        H248   0.990       .  S
O231        H263   0.990       .  S
O232        H249   0.990       .  S
O233        H253   0.990       .  S
O233        H262   0.990       .  S
O234        C235   1.284   1_554  A
C235       C3547   1.474       .  S
O236        H255   0.990       .  S
O236        H259   0.990   1_554  S
O237        H251   0.990       .  S
O237        H258   0.990       .  S
O238        C242   1.288       .  A
O239        C242   1.281       .  A
O240        H250   0.990       .  S
O241        H254   0.990       .  S
C242       C3339   1.471       .  S
Zr265       O266   2.439       .  S
Zr265       O267   2.426       .  S
Zr265       O268   2.469       .  S
Zr265       O271   2.439       .  S
Zr265       O273   2.382       .  S
Zr265       O274   2.394       .  S
Zr265       O275   2.401       .  S
Zr265       O276   2.403       .  S
O266        H322   0.990       .  S
O266        H330   0.990       .  S
O267        C287   1.282       .  A
O268        C289   1.289       .  A
O269       Zr279   2.419       .  S
O269        C288   1.281       .  A
O270       Zr278   2.414       .  S
O270        C289   1.280       .  A
O271        C288   1.285       .  A
O272       Zr280   2.428       .  S
O272        C287   1.282       .  A
O273       Zr278   2.392       .  S
O273       Zr280   2.373       .  S
O274       Zr279   2.392       .  S
O274       Zr280   2.367       .  S
O274        H309   0.967       .  S
O275       Zr278   2.394       .  S
O275       Zr295   2.389       .  S
O275        H312   0.969       .  S
O276       Zr279   2.401       .  S
O276       Zr295   2.390       .  S
Zr277       O302   2.441       .  S
Zr277       O296   2.454       .  S
Zr277       O304   2.431       .  S
Zr277       O292   2.438       .  S
Zr277       O283   2.412       .  S
Zr277       O284   2.409       .  S
Zr277       O285   2.377       .  S
Zr277       O286   2.384       .  S
Zr278       O297   2.434       .  S
Zr278       O290   2.432       .  S
Zr278       O291   2.428       .  S
Zr278       O284   2.390       .  S
Zr278       O285   2.385       .  S
Zr279       O281   2.435       .  S
Zr279       O303   2.440       .  S
Zr279       O305   2.441       .  S
Zr279       O283   2.385       .  S
Zr279       O286   2.387       .  S
Zr280       O306   2.436       .  S
Zr280       O307   2.436       .  S
Zr280       O282   2.436       .  S
Zr280       O283   2.398       .  S
Zr280       O284   2.395       .  S
O281        H318   0.990       .  S
O282        H313   0.990       .  S
O282        H327   0.990       .  S
O284        H310   0.966       .  S
O285       Zr295   2.381       .  S
O286       Zr295   2.387       .  S
O286        H311   0.967       .  S
C287       C3304   1.466       .  S
C288       C3288   1.465       .  S
C289       C3259   1.476       .  S
O290        H326   0.990       .  S
O291        C293   1.283       .  A
O292        C293   1.285       .  A
C293       C3611   1.470       .  S
O294       Zr295   2.439       .  S
O294        H323   0.990       .  S
Zr295       O298   2.437       .  S
Zr295       O299   2.440       .  S
Zr295       O300   2.398       .  S
O296        C301   1.288       .  A
O297        H314   0.990       .  S
O297        H329   0.990       .  S
O298        H315   0.990       .  S
O299        H319   0.990       .  S
O299        H328   0.990       .  S
O300        C301   1.277       .  A
C301       C3272   1.467       .  S
O302        H321   0.990       .  S
O302        H325   0.990       .  S
O303        H317   0.991       .  S
O303        H324   0.990       .  S
O304        C308   1.283       .  A
O305        C308   1.284       .  A
O306        H316   0.990       .  S
O307        H320   0.990       .  S
C308       C3323   1.471       .  S
Zr331       O332   2.440       .  S
Zr331       O333   2.434       .  S
Zr331       O334   2.451       .  S
Zr331       O337   2.448       .  S
Zr331       O339   2.386       .  S
Zr331       O340   2.386       .  S
Zr331       O341   2.411       .  S
Zr331       O342   2.392       .  S
O332        H388   0.990       .  S
O332        H396   0.990       .  S
O333        C353   1.282       .  A
O334        C355   1.285       .  A
O335       Zr345   2.404       .  S
O335        C354   1.279       .  A
O336       Zr344   2.416       .  S
O336        C355   1.280       .  A
O337        C354   1.287       .  A
O338       Zr346   2.429       .  S
O338        C353   1.282       .  A
O339       Zr344   2.393       .  S
O339       Zr346   2.372       .  S
O340       Zr345   2.391       .  S
O340       Zr346   2.374       .  S
O340        H375   0.964       .  S
O341       Zr344   2.397       .  S
O341       Zr361   2.400       .  S
O341        H378   0.970       .  S
O342       Zr345   2.394       .  S
O342       Zr361   2.387       .  S
Zr343       O368   2.439       .  S
Zr343       O362   2.456       .  S
Zr343       O370   2.446       .  S
Zr343       O358   2.443       .  S
Zr343       O349   2.405       .  S
Zr343       O350   2.413       .  S
Zr343       O351   2.382       .  S
Zr343       O352   2.379       .  S
Zr344       O363   2.436       .  S
Zr344       O356   2.434       .  S
Zr344       O357   2.435       .  S
Zr344       O350   2.390       .  S
Zr344       O351   2.386       .  S
Zr345       O347   2.436       .  S
Zr345       O369   2.441       .  S
Zr345       O371   2.421       .  S
Zr345       O349   2.387       .  S
Zr345       O352   2.392       .  S
Zr346       O372   2.437       .  S
Zr346       O373   2.435       .  S
Zr346       O348   2.438       .  S
Zr346       O349   2.399       .  S
Zr346       O350   2.393       .  S
O347        H384   0.990       .  S
O348        H379   0.991       .  S
O348        H393   0.990       .  S
O350        H376   0.966       .  S
O351       Zr361   2.382       .  S
O352       Zr361   2.384       .  S
O352        H377   0.966       .  S
C353       C3243   1.470       .  S
C354       C3208   1.462       .  S
C355       C3179   1.466       .  S
O356        H392   0.990       .  S
O357        C359   1.285       .  A
O358        C359   1.286       .  A
C359       C3227   1.474       .  S
O360       Zr361   2.440       .  S
O360        H389   0.990       .  S
Zr361       O364   2.437       .  S
Zr361       O365   2.440       .  S
Zr361       O366   2.417       .  S
O362        C367   1.288       .  A
O363        H380   0.990       .  S
O363        H395   0.990       .  S
O364        H381   0.990       .  S
O365        H385   0.990       .  S
O365        H394   0.990       .  S
O366        C367   1.281       .  A
C367       C3195   1.475       .  S
O368        H387   0.990       .  S
O368        H391   0.991       .  S
O369        H383   0.990       .  S
O369        H390   0.990       .  S
O370        C374   1.286       .  A
O371        C374   1.282       .  A
O372        H382   0.990       .  S
O373        H386   0.990       .  S
C374       C3320   1.471       .  S
Zr397       O398   2.439   1_556  S
Zr397       O399   2.426   1_556  S
Zr397       O400   2.462   1_556  S
Zr397       O403   2.442   1_556  S
Zr397       O405   2.383       .  S
Zr397       O406   2.395   1_556  S
Zr397       O407   2.406       .  S
Zr397       O408   2.399       .  S
O398        H454   0.990       .  S
O398        H462   0.990       .  S
O399        C419   1.282       .  A
O400        C421   1.287   1_554  A
O401       Zr411   2.419   1_554  S
O401        C420   1.283       .  A
O402       Zr410   2.420       .  S
O402        C421   1.281       .  A
O403        C420   1.286       .  A
O404       Zr412   2.443   1_554  S
O404        C419   1.284       .  A
O405       Zr410   2.394       .  S
O405       Zr412   2.370       .  S
O406       Zr411   2.398   1_554  S
O406       Zr412   2.371   1_554  S
O406        H441   0.965       .  S
O407       Zr410   2.393       .  S
O407       Zr427   2.399       .  S
O407        H444   0.969       .  S
O408       Zr411   2.393       .  S
O408       Zr427   2.382       .  S
Zr409       O434   2.443       .  S
Zr409       O428   2.461       .  S
Zr409       O436   2.436       .  S
Zr409       O424   2.422       .  S
Zr409       O415   2.414       .  S
Zr409       O416   2.418       .  S
Zr409       O417   2.382       .  S
Zr409       O418   2.373       .  S
Zr410       O429   2.432       .  S
Zr410       O422   2.435       .  S
Zr410       O423   2.429       .  S
Zr410       O416   2.399       .  S
Zr410       O417   2.390       .  S
Zr411       O413   2.436       .  S
Zr411       O435   2.438   1_556  S
Zr411       O437   2.440       .  S
Zr411       O415   2.392       .  S
Zr411       O418   2.388       .  S
Zr412       O438   2.437   1_556  S
Zr412       O439   2.437       .  S
Zr412       O414   2.437       .  S
Zr412       O415   2.409       .  S
Zr412       O416   2.393       .  S
O413        H450   0.990       .  S
O414        H445   0.990   1_556  S
O414        H459   0.990       .  S
O416        H442   0.965       .  S
O417       Zr427   2.384       .  S
O418       Zr427   2.386       .  S
O418        H443   0.966       .  S
C419       C3307   1.470       .  S
C420       C3435   1.467       .  S
C421       C3128   1.475   1_556  S
O422        H458   0.990       .  S
O423        C425   1.282       .  A
O424        C425   1.282       .  A
C425       C3147   1.462       .  S
O426       Zr427   2.438       .  S
O426        H455   0.990       .  S
Zr427       O430   2.436       .  S
Zr427       O431   2.441       .  S
Zr427       O432   2.407       .  S
O428        C433   1.287       .  A
O429        H446   0.990       .  S
O429        H461   0.990       .  S
O430        H447   0.990       .  S
O431        H451   0.990       .  S
O431        H460   0.990       .  S
O432        C433   1.279       .  A
C433       C3576   1.477       .  S
O434        H453   0.991       .  S
O434        H457   0.990       .  S
O435        H449   0.990       .  S
O435        H456   0.990       .  S
O436        C440   1.283       .  A
O437        C440   1.285       .  A
O438        H448   0.990   1_554  S
O439        H452   0.990       .  S
C440       C3163   1.476       .  S
Zr463       O464   2.441       .  S
Zr463       O465   2.434       .  S
Zr463       O466   2.440       .  S
Zr463       O469   2.439       .  S
Zr463       O471   2.381       .  S
Zr463       O472   2.389       .  S
Zr463       O473   2.411       .  S
Zr463       O474   2.394       .  S
O464        H520   0.991       .  S
O464        H528   0.990       .  S
O465        C485   1.282       .  A
O466        C487   1.283       .  A
O467       Zr477   2.422       .  S
O467        C486   1.283       .  A
O468       Zr476   2.417       .  S
O468        C487   1.280       .  A
O469        C486   1.285       .  A
O470       Zr478   2.436       .  S
O470        C485   1.283       .  A
O471       Zr476   2.394       .  S
O471       Zr478   2.365       .  S
O472       Zr477   2.396       .  S
O472       Zr478   2.377       .  S
O472        H507   0.970       .  S
O473       Zr476   2.400       .  S
O473       Zr493   2.399       .  S
O473        H510   0.966       .  S
O474       Zr477   2.395       .  S
O474       Zr493   2.391       .  S
Zr475       O500   2.441       .  S
Zr475       O494   2.456       .  S
Zr475       O502   2.437       .  S
Zr475       O490   2.428       .  S
Zr475       O481   2.412       .  S
Zr475       O482   2.414       .  S
Zr475       O483   2.382       .  S
Zr475       O484   2.378       .  S
Zr476       O495   2.435       .  S
Zr476       O488   2.436       .  S
Zr476       O489   2.435       .  S
Zr476       O482   2.392       .  S
Zr476       O483   2.393       .  S
Zr477       O479   2.436       .  S
Zr477       O501   2.436       .  S
Zr477       O503   2.439       .  S
Zr477       O481   2.390       .  S
Zr477       O484   2.392       .  S
Zr478       O504   2.435       .  S
Zr478       O505   2.435       .  S
Zr478       O480   2.438       .  S
Zr478       O481   2.408       .  S
Zr478       O482   2.388       .  S
O479        H516   0.990       .  S
O480        H511   0.990       .  S
O480        H525   0.990       .  S
O482        H508   0.967       .  S
O483       Zr493   2.383       .  S
O484       Zr493   2.385       .  S
O484        H509   0.967       .  S
C485       C3240   1.471       .  S
C486       C3112   1.467       .  S
C487       C3067   1.460       .  S
O488        H524   0.990       .  S
O489        C491   1.284       .  A
O490        C491   1.284       .  A
C491       C3099   1.467       .  S
O492       Zr493   2.440       .  S
O492        H521   0.990       .  S
Zr493       O496   2.439       .  S
Zr493       O497   2.439       .  S
Zr493       O498   2.419       .  S
O494        C499   1.287       .  A
O495        H512   0.990       .  S
O495        H527   0.990       .  S
O496        H513   0.990       .  S
O497        H517   0.990       .  S
O497        H526   0.990       .  S
O498        C499   1.280       .  A
C499       C3080   1.477       .  S
O500        H519   0.990       .  S
O500        H523   0.990       .  S
O501        H515   0.990       .  S
O501        H522   0.990       .  S
O502        C506   1.283       .  A
O503        C506   1.284       .  A
O504        H514   0.991       .  S
O505        H518   0.990       .  S
C506       C3160   1.474       .  S
Zr529       O530   2.442       .  S
Zr529       O531   2.463       .  S
Zr529       O532   2.450       .  S
Zr529       O535   2.431       .  S
Zr529       O537   2.377       .  S
Zr529       O538   2.385       .  S
Zr529       O539   2.418       .  S
Zr529       O540   2.408       .  S
O530        H586   0.990       .  S
O530        H594   0.990       .  S
O531        C551   1.289       .  A
O532        C553   1.284       .  A
O533       Zr543   2.412       .  S
O533        C552   1.280       .  A
O534       Zr542   2.431       .  S
O534        C553   1.283       .  A
O535        C552   1.283       .  A
O536       Zr544   2.414       .  S
O536        C551   1.279       .  A
O537       Zr542   2.397       .  S
O537       Zr544   2.388       .  S
O538       Zr543   2.393       .  S
O538       Zr544   2.379       .  S
O538        H573   0.967       .  S
O539       Zr542   2.401       .  S
O539       Zr559   2.405       .  S
O539        H576   0.964       .  S
O540       Zr543   2.383       .  S
O540       Zr559   2.395       .  S
Zr541       O566   2.441       .  S
Zr541       O560   2.425       .  S
Zr541       O568   2.453       .  S
Zr541       O556   2.449       .  S
Zr541       O547   2.402       .  S
Zr541       O548   2.405       .  S
Zr541       O549   2.387       .  S
Zr541       O550   2.386       .  S
Zr542       O561   2.437       .  S
Zr542       O554   2.435       .  S
Zr542       O555   2.427       .  S
Zr542       O548   2.404       .  S
Zr542       O549   2.394       .  S
Zr543       O545   2.436       .  S
Zr543       O567   2.434       .  S
Zr543       O569   2.415       .  S
Zr543       O547   2.392       .  S
Zr543       O550   2.386       .  S
Zr544       O570   2.437       .  S
Zr544       O571   2.436       .  S
Zr544       O546   2.437       .  S
Zr544       O547   2.395       .  S
Zr544       O548   2.389       .  S
O545        H582   0.990       .  S
O546        H577   0.990       .  S
O546        H591   0.990       .  S
O548        H574   0.965       .  S
O549       Zr559   2.375       .  S
O550       Zr559   2.364       .  S
O550        H575   0.966       .  S
C551       C3083   1.479       .  S
C552       C3016   1.461       .  S
C553       C3048   1.472       .  S
O554        H590   0.990       .  S
O555        C557   1.283       .  A
O556        C557   1.287       .  A
C557       C3224   1.471       .  S
O558       Zr559   2.440       .  S
O558        H587   0.991       .  S
Zr559       O562   2.436       .  S
Zr559       O563   2.441       .  S
Zr559       O564   2.442       .  S
O560        C565   1.282       .  A
O561        H578   0.990       .  S
O561        H593   0.990       .  S
O562        H579   0.990       .  S
O563        H583   0.990       .  S
O563        H592   0.989       .  S
O564        C565   1.284       .  A
C565       C3032   1.470       .  S
O566        H585   0.990       .  S
O566        H589   0.990       .  S
O567        H581   0.990       .  S
O567        H588   0.990       .  S
O568        C572   1.288       .  A
O569        C572   1.281       .  A
O570        H580   0.990       .  S
O571        H584   0.990       .  S
C572       C3403   1.466       .  S
Zr595       O596   2.443       .  S
Zr595       O597   2.454       .  S
Zr595       O598   2.433       .  S
Zr595       O601   2.431       .  S
Zr595       O603   2.381       .  S
Zr595       O604   2.383   1_545  S
Zr595       O605   2.413       .  S
Zr595       O606   2.406       .  S
O596        H652   0.990       .  S
O596        H660   0.991       .  S
O597        C617   1.287       .  A
O598        C619   1.281       .  A
O599       Zr609   2.422       .  S
O599        C618   1.281   1_565  A
O600       Zr608   2.423       .  S
O600        C619   1.281       .  A
O601        C618   1.283       .  A
O602       Zr610   2.409       .  S
O602        C617   1.278   1_565  A
O603       Zr608   2.391       .  S
O603       Zr610   2.387   1_545  S
O604       Zr609   2.387       .  S
O604       Zr610   2.382       .  S
O604        H639   0.967       .  S
O605       Zr608   2.394       .  S
O605       Zr625   2.394       .  S
O605        H642   0.965       .  S
O606       Zr609   2.388   1_545  S
O606       Zr625   2.397       .  S
Zr607       O632   2.449       .  S
Zr607       O626   2.434   1_554  S
Zr607       O634   2.456       .  S
Zr607       O622   2.438       .  S
Zr607       O613   2.405       .  S
Zr607       O614   2.410       .  S
Zr607       O615   2.383   1_565  S
Zr607       O616   2.386       .  S
Zr608       O627   2.439       .  S
Zr608       O620   2.434       .  S
Zr608       O621   2.407       .  S
Zr608       O614   2.401   1_545  S
Zr608       O615   2.387       .  S
Zr609       O611   2.435       .  S
Zr609       O633   2.434       .  S
Zr609       O635   2.417       .  S
Zr609       O613   2.391       .  S
Zr609       O616   2.393       .  S
Zr610       O636   2.436       .  S
Zr610       O637   2.434       .  S
Zr610       O612   2.439       .  S
Zr610       O613   2.397       .  S
Zr610       O614   2.392       .  S
O611        H648   0.991       .  S
O612        H643   0.991       .  S
O612        H657   0.990       .  S
O614        H640   0.966       .  S
O615       Zr625   2.369       .  S
O616       Zr625   2.368   1_565  S
O616        H641   0.966       .  S
C617       C2955   1.472       .  S
C618       C2968   1.466       .  S
C619       C3051   1.462       .  S
O620        H656   0.990       .  S
O621        C623   1.279       .  A
O622        C623   1.285   1_565  A
C623       C2984   1.457   1_554  S
O624       Zr625   2.439       .  S
O624        H653   0.991       .  S
Zr625       O628   2.440       .  S
Zr625       O629   2.437       .  S
Zr625       O630   2.431       .  S
O626        C631   1.283       .  A
O627        H644   0.990       .  S
O627        H659   0.990       .  S
O628        H645   0.990       .  S
O629        H649   0.990       .  S
O629        H658   0.990       .  S
O630        C631   1.284   1_544  A
C631       C3000   1.471       .  S
O632        H651   0.990       .  S
O632        H655   0.990       .  S
O633        H647   0.990       .  S
O633        H654   0.990       .  S
O634        C638   1.287       .  A
O635        C638   1.281       .  A
O636        H646   0.990       .  S
O637        H650   0.990       .  S
C638       C3336   1.470       .  S
Zr661       O662   2.444       .  S
Zr661       O663   2.451       .  S
Zr661       O664   2.447       .  S
Zr661       O667   2.429       .  S
Zr661       O669   2.380       .  S
Zr661       O670   2.386       .  S
Zr661       O671   2.414       .  S
Zr661       O672   2.409       .  S
O662        H718   0.991       .  S
O662        H726   0.990       .  S
O663        C683   1.285       .  A
O664        C685   1.284       .  A
O665       Zr675   2.427       .  S
O665        C684   1.283       .  A
O666       Zr674   2.428       .  S
O666        C685   1.282       .  A
O667        C684   1.282       .  A
O668       Zr676   2.400       .  S
O668        C683   1.277       .  A
O669       Zr674   2.398       .  S
O669       Zr676   2.391       .  S
O670       Zr675   2.389       .  S
O670       Zr676   2.379       .  S
O670        H705   0.967       .  S
O671       Zr674   2.396       .  S
O671       Zr691   2.396       .  S
O671        H708   0.963       .  S
O672       Zr675   2.388       .  S
O672       Zr691   2.395       .  S
Zr673       O698   2.440       .  S
Zr673       O692   2.430       .  S
Zr673       O700   2.453       .  S
Zr673       O688   2.439       .  S
Zr673       O679   2.408       .  S
Zr673       O680   2.407       .  S
Zr673       O681   2.382       .  S
Zr673       O682   2.386       .  S
Zr674       O693   2.435       .  S
Zr674       O686   2.437       .  S
Zr674       O687   2.421       .  S
Zr674       O680   2.401       .  S
Zr674       O681   2.389       .  S
Zr675       O677   2.436       .  S
Zr675       O699   2.436       .  S
Zr675       O701   2.420       .  S
Zr675       O679   2.397       .  S
Zr675       O682   2.392       .  S
Zr676       O702   2.439       .  S
Zr676       O703   2.437       .  S
Zr676       O678   2.439       .  S
Zr676       O679   2.398       .  S
Zr676       O680   2.385       .  S
O677        H714   0.991       .  S
O678        H709   0.991       .  S
O678        H723   0.990       .  S
O680        H706   0.965       .  S
O681       Zr691   2.374       .  S
O682       Zr691   2.365       .  S
O682        H707   0.966       .  S
C683       C2904   1.470       .  S
C684       C3115   1.465       .  S
C685       C2936   1.468       .  S
O686        H722   0.990       .  S
O687        C689   1.282       .  A
O688        C689   1.285       .  A
C689       C2923   1.462       .  S
O690       Zr691   2.439       .  S
O690        H719   0.990       .  S
Zr691       O694   2.437       .  S
Zr691       O695   2.437       .  S
Zr691       O696   2.435       .  S
O692        C697   1.283       .  A
O693        H710   0.990       .  S
O693        H725   0.990       .  S
O694        H711   0.990       .  S
O695        H715   0.990       .  S
O695        H724   0.990       .  S
O696        C697   1.283       .  A
C697       C3035   1.469       .  S
O698        H717   0.990       .  S
O698        H721   0.990       .  S
O699        H713   0.990       .  S
O699        H720   0.990       .  S
O700        C704   1.286       .  A
O701        C704   1.281       .  A
O702        H712   0.990       .  S
O703        H716   0.990       .  S
C704       C3563   1.466       .  S
Zr727       O728   2.444       .  S
Zr727       O729   2.456       .  S
Zr727       O730   2.440       .  S
Zr727       O733   2.433       .  S
Zr727       O735   2.379       .  S
Zr727       O736   2.385   1_545  S
Zr727       O737   2.417       .  S
Zr727       O738   2.408       .  S
O728        H784   0.991       .  S
O728        H792   0.990       .  S
O729        C749   1.287       .  A
O730        C751   1.282       .  A
O731       Zr741   2.416       .  S
O731        C750   1.282   1_565  A
O732       Zr740   2.429       .  S
O732        C751   1.283       .  A
O733        C750   1.283       .  A
O734       Zr742   2.406       .  S
O734        C749   1.277   1_565  A
O735       Zr740   2.397       .  S
O735       Zr742   2.384   1_545  S
O736       Zr741   2.392       .  S
O736       Zr742   2.383       .  S
O736        H771   0.967       .  S
O737       Zr740   2.398       .  S
O737       Zr757   2.399       .  S
O737        H774   0.964       .  S
O738       Zr741   2.387   1_545  S
O738       Zr757   2.398       .  S
Zr739       O764   2.439       .  S
Zr739       O758   2.432       .  S
Zr739       O766   2.458       .  S
Zr739       O754   2.444       .  S
Zr739       O745   2.401       .  S
Zr739       O746   2.410       .  S
Zr739       O747   2.387   1_565  S
Zr739       O748   2.380       .  S
Zr740       O759   2.437       .  S
Zr740       O752   2.435       .  S
Zr740       O753   2.423       .  S
Zr740       O746   2.406   1_545  S
Zr740       O747   2.392       .  S
Zr741       O743   2.437       .  S
Zr741       O765   2.434       .  S
Zr741       O767   2.411       .  S
Zr741       O745   2.391       .  S
Zr741       O748   2.385       .  S
Zr742       O768   2.436       .  S
Zr742       O769   2.434       .  S
Zr742       O744   2.440       .  S
Zr742       O745   2.395       .  S
Zr742       O746   2.388       .  S
O743        H780   0.990       .  S
O744        H775   0.990   1_565  S
O744        H789   0.990       .  S
O746        H772   0.966       .  S
O747       Zr757   2.374       .  S
O748       Zr757   2.369   1_565  S
O748        H773   0.965       .  S
C749       C2859   1.473       .  S
C750       C2888   1.465       .  S
C751       C2939   1.468       .  S
O752        H788   0.990       .  S
O753        C755   1.284       .  A
O754        C755   1.285   1_565  A
C755       C2872   1.467       .  S
O756       Zr757   2.439       .  S
O756        H785   0.990       .  S
Zr757       O760   2.438       .  S
Zr757       O761   2.439       .  S
Zr757       O762   2.435       .  S
O758        C763   1.283       .  A
O759        H776   0.990       .  S
O759        H791   0.990       .  S
O760        H777   0.990       .  S
O761        H781   0.990   1_545  S
O761        H790   0.990       .  S
O762        C763   1.284   1_545  A
C763       C3003   1.467       .  S
O764        H783   0.990       .  S
O764        H787   0.990       .  S
O765        H779   0.990       .  S
O765        H786   0.990       .  S
O766        C770   1.288       .  A
O767        C770   1.279       .  A
O768        H778   0.990       .  S
O769        H782   0.990       .  S
C770       C3480   1.468       .  S
Zr793       O794   2.442       .  S
Zr793       O795   2.426       .  S
Zr793       O796   2.459       .  S
Zr793       O799   2.445       .  S
Zr793       O801   2.385       .  S
Zr793       O802   2.390   1_545  S
Zr793       O803   2.403       .  S
Zr793       O804   2.398       .  S
O794        H850   0.991       .  S
O794        H858   0.991       .  S
O795        C815   1.282       .  A
O796        C817   1.287       .  A
O797       Zr807   2.414       .  S
O797        C816   1.281   1_565  A
O798       Zr806   2.423       .  S
O798        C817   1.281       .  A
O799        C816   1.286       .  A
O800       Zr808   2.433       .  S
O800        C815   1.283   1_565  A
O801       Zr806   2.393       .  S
O801       Zr808   2.371   1_545  S
O802       Zr807   2.389       .  S
O802       Zr808   2.377       .  S
O802        H837   0.966       .  S
O803       Zr806   2.398       .  S
O803       Zr823   2.396       .  S
O803        H840   0.968       .  S
O804       Zr807   2.395   1_545  S
O804       Zr823   2.392       .  S
Zr805       O830   2.442       .  S
Zr805       O824   2.458       .  S
Zr805       O832   2.432       .  S
Zr805       O820   2.441       .  S
Zr805       O811   2.407       .  S
Zr805       O812   2.419       .  S
Zr805       O813   2.380   1_565  S
Zr805       O814   2.378       .  S
Zr806       O825   2.434       .  S
Zr806       O818   2.437       .  S
Zr806       O819   2.434       .  S
Zr806       O812   2.396   1_545  S
Zr806       O813   2.394       .  S
Zr807       O809   2.436       .  S
Zr807       O831   2.439       .  S
Zr807       O833   2.424       .  S
Zr807       O811   2.382       .  S
Zr807       O814   2.389       .  S
Zr808       O834   2.437       .  S
Zr808       O835   2.437       .  S
Zr808       O810   2.437       .  S
Zr808       O811   2.397       .  S
Zr808       O812   2.395       .  S
O809        H846   0.990       .  S
O810        H841   0.990       .  S
O810        H855   0.990   1_565  S
O812        H838   0.966       .  S
O813       Zr823   2.381       .  S
O814       Zr823   2.383   1_565  S
O814        H839   0.966       .  S
C815       C2827   1.465       .  S
C816       C2971   1.467       .  S
C817       C2792   1.472       .  S
O818        H854   0.990       .  S
O819        C821   1.283       .  A
O820        C821   1.284   1_565  A
C821       C2811   1.471       .  S
O822       Zr823   2.437       .  S
O822        H851   0.990       .  S
Zr823       O826   2.436       .  S
Zr823       O827   2.440       .  S
Zr823       O828   2.413       .  S
O824        C829   1.288   1_565  A
O825        H842   0.990       .  S
O825        H857   0.990       .  S
O826        H843   0.990       .  S
O827        H847   0.990       .  S
O827        H856   0.990       .  S
O828        C829   1.279       .  A
C829       C2856   1.476       .  S
O830        H849   0.990       .  S
O830        H853   0.990       .  S
O831        H845   0.990       .  S
O831        H852   0.990       .  S
O832        C836   1.283       .  A
O833        C836   1.282       .  A
O834        H844   0.990       .  S
O835        H848   0.990       .  S
C836       C2840   1.464       .  S
Zr859       O860   2.441       .  S
Zr859       O861   2.427       .  S
Zr859       O862   2.450       .  S
Zr859       O865   2.446       .  S
Zr859       O867   2.383       .  S
Zr859       O868   2.387       .  S
Zr859       O869   2.406       .  S
Zr859       O870   2.393       .  S
O860        H916   0.990       .  S
O860        H924   0.990       .  S
O861        C881   1.282       .  A
O862        C883   1.284       .  A
O863       Zr873   2.419       .  S
O863        C882   1.283       .  A
O864       Zr872   2.415       .  S
O864        C883   1.280       .  A
O865        C882   1.287       .  A
O866       Zr874   2.430       .  S
O866        C881   1.282       .  A
O867       Zr872   2.393       .  S
O867       Zr874   2.368       .  S
O868       Zr873   2.387       .  S
O868       Zr874   2.376       .  S
O868        H903   0.965       .  S
O869       Zr872   2.399       .  S
O869       Zr889   2.400       .  S
O869        H906   0.970       .  S
O870       Zr873   2.393       .  S
O870       Zr889   2.386       .  S
Zr871       O896   2.440       .  S
Zr871       O890   2.457       .  S
Zr871       O898   2.443       .  S
Zr871       O886   2.442       .  S
Zr871       O877   2.409       .  S
Zr871       O878   2.411       .  S
Zr871       O879   2.382       .  S
Zr871       O880   2.377       .  S
Zr872       O891   2.433       .  S
Zr872       O884   2.436       .  S
Zr872       O885   2.433       .  S
Zr872       O878   2.391       .  S
Zr872       O879   2.391       .  S
Zr873       O875   2.435       .  S
Zr873       O897   2.440       .  S
Zr873       O899   2.419       .  S
Zr873       O877   2.391       .  S
Zr873       O880   2.391       .  S
Zr874       O900   2.438       .  S
Zr874       O901   2.435       .  S
Zr874       O876   2.437       .  S
Zr874       O877   2.400       .  S
Zr874       O878   2.387       .  S
O875        H912   0.990       .  S
O876        H907   0.990       .  S
O876        H921   0.990       .  S
O878        H904   0.966       .  S
O879       Zr889   2.386       .  S
O880       Zr889   2.381       .  S
O880        H905   0.966       .  S
C881       C2779   1.463       .  S
C882       C3515   1.469       .  S
C883       C2744   1.464       .  S
O884        H920   0.990       .  S
O885        C887   1.284       .  A
O886        C887   1.285       .  A
C887       C2760   1.472       .  S
O888       Zr889   2.439       .  S
O888        H917   0.991       .  S
Zr889       O892   2.436       .  S
Zr889       O893   2.441       .  S
Zr889       O894   2.409       .  S
O890        C895   1.287       .  A
O891        H908   0.990       .  S
O891        H923   0.990       .  S
O892        H909   0.990       .  S
O893        H913   0.990       .  S
O893        H922   0.990       .  S
O894        C895   1.280       .  A
C895       C3352   1.478       .  S
O896        H915   0.990       .  S
O896        H919   0.990       .  S
O897        H911   0.990       .  S
O897        H918   0.990       .  S
O898        C902   1.284       .  A
O899        C902   1.282       .  A
O900        H910   0.990       .  S
O901        H914   0.990       .  S
C902       C2843   1.469       .  S
Zr925       O926   2.443       .  S
Zr925       O927   2.432       .  S
Zr925       O928   2.451       .  S
Zr925       O931   2.449       .  S
Zr925       O933   2.386   1_554  S
Zr925       O934   2.390   1_545  S
Zr925       O935   2.409   1_554  S
Zr925       O936   2.394   1_554  S
O926        H982   0.990       .  S
O926        H990   0.991       .  S
O927        C947   1.283       .  A
O928        C949   1.285   1_554  A
O929       Zr939   2.413   1_554  S
O929        C948   1.280   1_565  A
O930       Zr938   2.418       .  S
O930        C949   1.280       .  A
O931        C948   1.287       .  A
O932       Zr940   2.415   1_544  S
O932        C947   1.280       .  A
O933       Zr938   2.392       .  S
O933       Zr940   2.375   1_545  S
O934       Zr939   2.392   1_554  S
O934       Zr940   2.378   1_554  S
O934        H969   0.967       .  S
O935       Zr938   2.399       .  S
O935       Zr955   2.394       .  S
O935        H972   0.968       .  S
O936       Zr939   2.391   1_545  S
O936       Zr955   2.383       .  S
Zr937       O962   2.441       .  S
Zr937       O956   2.455       .  S
Zr937       O964   2.439       .  S
Zr937       O952   2.442       .  S
Zr937       O943   2.403       .  S
Zr937       O944   2.416   1_565  S
Zr937       O945   2.385   1_565  S
Zr937       O946   2.376       .  S
Zr938       O957   2.435       .  S
Zr938       O950   2.436       .  S
Zr938       O951   2.428       .  S
Zr938       O944   2.393       .  S
Zr938       O945   2.394       .  S
Zr939       O941   2.435       .  S
Zr939       O963   2.438   1_556  S
Zr939       O965   2.429       .  S
Zr939       O943   2.380       .  S
Zr939       O946   2.387       .  S
Zr940       O966   2.435   1_556  S
Zr940       O967   2.435       .  S
Zr940       O942   2.436       .  S
Zr940       O943   2.390       .  S
Zr940       O944   2.387   1_565  S
O941        H978   0.990       .  S
O942        H973   0.990   1_556  S
O942        H987   0.990   1_565  S
O944        H970   0.965   1_545  S
O945       Zr955   2.385       .  S
O946       Zr955   2.386   1_565  S
O946        H971   0.966       .  S
C947       C2824   1.462       .  S
C948       C2715   1.465       .  S
C949       C2680   1.465   1_556  S
O950        H986   0.989       .  S
O951        C953   1.283       .  A
O952        C953   1.284   1_565  A
C953       C2875   1.469       .  S
O954       Zr955   2.439       .  S
O954        H983   0.990       .  S
Zr955       O958   2.437       .  S
Zr955       O959   2.441       .  S
Zr955       O960   2.402       .  S
O956        C961   1.287   1_565  A
O957        H974   0.990       .  S
O957        H989   0.990       .  S
O958        H975   0.990       .  S
O959        H979   0.990       .  S
O959        H988   0.990       .  S
O960        C961   1.278       .  A
C961       C2699   1.471       .  S
O962        H981   0.991       .  S
O962        H985   0.990       .  S
O963        H977   0.990       .  S
O963        H984   0.990       .  S
O964        C968   1.285       .  A
O965        C968   1.284       .  A
O966        H976   0.990       .  S
O967        H980   0.990       .  S
C968       C2731   1.473       .  S
Zr991       O992   2.443       .  S
Zr991       O993   2.429       .  S
Zr991       O994   2.464       .  S
Zr991       O997   2.441       .  S
Zr991       O999   2.382       .  S
Zr991      O1000   2.389       .  S
Zr991      O1001   2.405       .  S
Zr991      O1002   2.400       .  S
O992       H1048   0.991       .  S
O992       H1056   0.990       .  S
O993       C1013   1.282       .  A
O994       C1015   1.286       .  A
O995      Zr1005   2.416       .  S
O995       C1014   1.281       .  A
O996      Zr1004   2.418       .  S
O996       C1015   1.280       .  A
O997       C1014   1.285       .  A
O998      Zr1006   2.422       .  S
O998       C1013   1.280       .  A
O999      Zr1004   2.391       .  S
O999      Zr1006   2.378       .  S
O1000     Zr1005   2.392       .  S
O1000     Zr1006   2.373       .  S
O1000      H1035   0.966       .  S
O1001     Zr1004   2.397       .  S
O1001     Zr1021   2.400       .  S
O1001      H1038   0.970       .  S
O1002     Zr1005   2.396       .  S
O1002     Zr1021   2.389       .  S
Zr1003     O1028   2.441       .  S
Zr1003     O1022   2.456       .  S
Zr1003     O1030   2.449       .  S
Zr1003     O1018   2.443       .  S
Zr1003     O1009   2.405       .  S
Zr1003     O1010   2.422       .  S
Zr1003     O1011   2.382       .  S
Zr1003     O1012   2.379       .  S
Zr1004     O1023   2.435       .  S
Zr1004     O1016   2.434       .  S
Zr1004     O1017   2.420       .  S
Zr1004     O1010   2.403       .  S
Zr1004     O1011   2.398       .  S
Zr1005     O1007   2.436       .  S
Zr1005     O1029   2.439       .  S
Zr1005     O1031   2.430       .  S
Zr1005     O1009   2.383       .  S
Zr1005     O1012   2.392       .  S
Zr1006     O1032   2.436       .  S
Zr1006     O1033   2.437       .  S
Zr1006     O1008   2.438       .  S
Zr1006     O1009   2.392       .  S
Zr1006     O1010   2.393       .  S
O1007      H1044   0.990       .  S
O1008      H1039   0.990       .  S
O1008      H1053   0.990       .  S
O1010      H1036   0.965       .  S
O1011     Zr1021   2.380       .  S
O1012     Zr1021   2.384       .  S
O1012      H1037   0.966       .  S
C1013      C2776   1.465       .  S
C1014      C2664   1.465       .  S
C1015      C2632   1.475       .  S
O1016      H1052   0.990       .  S
O1017      C1019   1.282       .  A
O1018      C1019   1.284       .  A
C1019      C3368   1.465       .  S
O1020     Zr1021   2.437       .  S
O1020      H1049   0.990       .  S
Zr1021     O1024   2.438       .  S
Zr1021     O1025   2.441       .  S
Zr1021     O1026   2.408       .  S
O1022      C1027   1.286       .  A
O1023      H1040   0.990       .  S
O1023      H1055   0.990       .  S
O1024      H1041   0.990       .  S
O1025      H1045   0.990       .  S
O1025      H1054   0.990       .  S
O1026      C1027   1.279       .  A
C1027      C2648   1.475       .  S
O1028      H1047   0.990       .  S
O1028      H1051   0.990       .  S
O1029      H1043   0.990       .  S
O1029      H1050   0.990       .  S
O1030      C1034   1.286       .  A
O1031      C1034   1.284       .  A
O1032      H1042   0.990       .  S
O1033      H1046   0.990       .  S
C1034      C2728   1.475       .  S
Zr1057     O1058   2.443       .  S
Zr1057     O1059   2.454       .  S
Zr1057     O1060   2.449       .  S
Zr1057     O1063   2.437       .  S
Zr1057     O1065   2.378       .  S
Zr1057     O1066   2.386       .  S
Zr1057     O1067   2.411       .  S
Zr1057     O1068   2.409       .  S
O1058      H1114   0.991       .  S
O1058      H1122   0.990       .  S
O1059      C1079   1.286       .  A
O1060      C1081   1.285       .  A
O1061     Zr1071   2.419       .  S
O1061      C1080   1.280       .  A
O1062     Zr1070   2.432       .  S
O1062      C1081   1.283       .  A
O1063      C1080   1.284       .  A
O1064     Zr1072   2.399       .  S
O1064      C1079   1.277       .  A
O1065     Zr1070   2.397       .  S
O1065     Zr1072   2.386       .  S
O1066     Zr1071   2.388       .  S
O1066     Zr1072   2.379       .  S
O1066      H1101   0.967       .  S
O1067     Zr1070   2.391       .  S
O1067     Zr1087   2.401       .  S
O1067      H1104   0.965       .  S
O1068     Zr1071   2.390       .  S
O1068     Zr1087   2.394       .  S
Zr1069     O1094   2.445       .  S
Zr1069     O1088   2.431       .  S
Zr1069     O1096   2.455       .  S
Zr1069     O1084   2.456       .  S
Zr1069     O1075   2.406       .  S
Zr1069     O1076   2.402       .  S
Zr1069     O1077   2.387       .  S
Zr1069     O1078   2.386       .  S
Zr1070     O1089   2.435       .  S
Zr1070     O1082   2.434       .  S
Zr1070     O1083   2.417       .  S
Zr1070     O1076   2.405       .  S
Zr1070     O1077   2.391       .  S
Zr1071     O1073   2.437       .  S
Zr1071     O1095   2.437       .  S
Zr1071     O1097   2.412       .  S
Zr1071     O1075   2.393       .  S
Zr1071     O1078   2.391       .  S
Zr1072     O1098   2.436       .  S
Zr1072     O1099   2.435       .  S
Zr1072     O1074   2.434       .  S
Zr1072     O1075   2.391       .  S
Zr1072     O1076   2.380       .  S
O1073      H1110   0.990       .  S
O1074      H1105   0.990       .  S
O1074      H1119   0.990       .  S
O1076      H1102   0.965       .  S
O1077     Zr1087   2.378       .  S
O1078     Zr1087   2.370       .  S
O1078      H1103   0.966       .  S
C1079      C2651   1.471       .  S
C1080      C2587   1.464       .  S
C1081      C2619   1.475       .  S
O1082      H1118   0.990       .  S
O1083      C1085   1.281       .  A
O1084      C1085   1.287       .  A
C1085      C2763   1.467       .  S
O1086     Zr1087   2.439       .  S
O1086      H1115   0.990       .  S
Zr1087     O1090   2.437       .  S
Zr1087     O1091   2.439       .  S
Zr1087     O1092   2.434       .  S
O1088      C1093   1.284       .  A
O1089      H1106   0.990       .  S
O1089      H1121   0.990       .  S
O1090      H1107   0.990       .  S
O1091      H1111   0.990       .  S
O1091      H1120   0.990       .  S
O1092      C1093   1.283       .  A
C1093      C2600   1.470       .  S
O1094      H1113   0.991       .  S
O1094      H1117   0.991       .  S
O1095      H1109   0.990       .  S
O1095      H1116   0.990       .  S
O1096      C1100   1.288       .  A
O1097      C1100   1.280       .  A
O1098      H1108   0.990       .  S
O1099      H1112   0.990       .  S
C1100      C2568   1.466       .  S
Zr1123     O1124   2.441       .  S
Zr1123     O1125   2.456       .  S
Zr1123     O1126   2.440       .  S
Zr1123     O1129   2.423       .  S
Zr1123     O1131   2.378       .  S
Zr1123     O1132   2.385       .  S
Zr1123     O1133   2.409       .  S
Zr1123     O1134   2.411       .  S
O1124      H1180   0.990       .  S
O1124      H1188   0.990       .  S
O1125      C1145   1.287       .  A
O1126      C1147   1.283       .  A
O1127     Zr1137   2.419       .  S
O1127      C1146   1.281       .  A
O1128     Zr1136   2.443       .  S
O1128      C1147   1.284       .  A
O1129      C1146   1.282       .  A
O1130     Zr1138   2.423       .  S
O1130      C1145   1.282       .  A
O1131     Zr1136   2.395       .  S
O1131     Zr1138   2.386       .  S
O1132     Zr1137   2.386       .  S
O1132     Zr1138   2.377       .  S
O1132      H1167   0.967       .  S
O1133     Zr1136   2.394       .  S
O1133     Zr1153   2.399       .  S
O1133      H1170   0.965       .  S
O1134     Zr1137   2.389       .  S
O1134     Zr1153   2.397       .  S
Zr1135     O1160   2.446       .  S
Zr1135     O1154   2.445   1_554  S
Zr1135     O1162   2.466       .  S
Zr1135     O1150   2.451       .  S
Zr1135     O1141   2.411       .  S
Zr1135     O1142   2.410       .  S
Zr1135     O1143   2.389       .  S
Zr1135     O1144   2.383       .  S
Zr1136     O1155   2.439       .  S
Zr1136     O1148   2.434       .  S
Zr1136     O1149   2.424       .  S
Zr1136     O1142   2.406       .  S
Zr1136     O1143   2.395       .  S
Zr1137     O1139   2.437       .  S
Zr1137     O1161   2.436       .  S
Zr1137     O1163   2.423       .  S
Zr1137     O1141   2.390       .  S
Zr1137     O1144   2.391       .  S
Zr1138     O1164   2.439       .  S
Zr1138     O1165   2.436       .  S
Zr1138     O1140   2.436       .  S
Zr1138     O1141   2.401       .  S
Zr1138     O1142   2.390       .  S
O1139      H1176   0.991       .  S
O1140      H1171   0.990       .  S
O1140      H1185   0.990       .  S
O1142      H1168   0.966       .  S
O1143     Zr1153   2.372       .  S
O1144     Zr1153   2.365       .  S
O1144      H1169   0.965       .  S
C1145      C2523   1.481       .  S
C1146      C3291   1.462       .  S
C1147      C2616   1.475       .  S
O1148      H1184   0.990       .  S
O1149      C1151   1.284       .  A
O1150      C1151   1.287       .  A
C1151      C2536   1.470   1_554  S
O1152     Zr1153   2.438       .  S
O1152      H1181   0.990       .  S
Zr1153     O1156   2.436       .  S
Zr1153     O1157   2.444       .  S
Zr1153     O1158   2.426       .  S
O1154      C1159   1.286       .  A
O1155      H1172   0.991       .  S
O1155      H1187   0.990       .  S
O1156      H1173   0.990       .  S
O1157      H1177   0.990       .  S
O1157      H1186   0.990       .  S
O1158      C1159   1.282   1_554  A
C1159      C2552   1.471       .  S
O1160      H1179   0.990       .  S
O1160      H1183   0.990       .  S
O1161      H1175   0.990       .  S
O1161      H1182   0.990       .  S
O1162      C1166   1.289       .  A
O1163      C1166   1.283       .  A
O1164      H1174   0.990       .  S
O1165      H1178   0.990       .  S
C1166      C2507   1.474       .  S
Zr1189     O1190   2.443       .  S
Zr1189     O1191   2.452       .  S
Zr1189     O1192   2.449       .  S
Zr1189     O1195   2.437       .  S
Zr1189     O1197   2.372       .  S
Zr1189     O1198   2.387       .  S
Zr1189     O1199   2.414       .  S
Zr1189     O1200   2.408       .  S
O1190      H1246   0.991       .  S
O1190      H1254   0.990       .  S
O1191      C1211   1.286       .  A
O1192      C1213   1.283       .  A
O1193     Zr1203   2.423       .  S
O1193      C1212   1.282       .  A
O1194     Zr1202   2.416       .  S
O1194      C1213   1.280       .  A
O1195      C1212   1.284       .  A
O1196     Zr1204   2.401   1_455  S
O1196      C1211   1.277   1_455  A
O1197     Zr1202   2.388       .  S
O1197     Zr1204   2.384       .  S
O1198     Zr1203   2.384       .  S
O1198     Zr1204   2.381       .  S
O1198      H1233   0.967       .  S
O1199     Zr1202   2.396       .  S
O1199     Zr1219   2.401       .  S
O1199      H1236   0.964       .  S
O1200     Zr1203   2.388       .  S
O1200     Zr1219   2.392       .  S
Zr1201     O1226   2.442       .  S
Zr1201     O1220   2.436       .  S
Zr1201     O1228   2.455       .  S
Zr1201     O1216   2.455   1_655  S
Zr1201     O1207   2.407       .  S
Zr1201     O1208   2.405       .  S
Zr1201     O1209   2.383       .  S
Zr1201     O1210   2.388       .  S
Zr1202     O1221   2.438       .  S
Zr1202     O1214   2.436   1_655  S
Zr1202     O1215   2.408   1_655  S
Zr1202     O1208   2.402       .  S
Zr1202     O1209   2.391       .  S
Zr1203     O1205   2.436       .  S
Zr1203     O1227   2.435       .  S
Zr1203     O1229   2.419       .  S
Zr1203     O1207   2.390       .  S
Zr1203     O1210   2.392       .  S
Zr1204     O1230   2.436       .  S
Zr1204     O1231   2.435   1_655  S
Zr1204     O1206   2.437   1_655  S
Zr1204     O1207   2.395       .  S
Zr1204     O1208   2.386       .  S
O1205      H1242   0.991       .  S
O1206      H1237   0.990       .  S
O1206      H1251   0.990       .  S
O1208      H1234   0.966   1_655  S
O1209     Zr1219   2.372       .  S
O1210     Zr1219   2.369       .  S
O1210      H1235   0.965       .  S
C1211      C3275   1.468   1_655  S
C1212      C2472   1.468       .  S
C1213      C2488   1.467       .  S
O1214      H1250   0.990       .  S
O1215      C1217   1.281       .  A
O1216      C1217   1.287       .  A
C1217      C3144   1.464       .  S
O1218     Zr1219   2.440       .  S
O1218      H1247   0.990       .  S
Zr1219     O1222   2.437       .  S
Zr1219     O1223   2.438       .  S
Zr1219     O1224   2.431       .  S
O1220      C1225   1.284       .  A
O1221      H1238   0.990   1_655  S
O1221      H1253   0.990       .  S
O1222      H1239   0.990       .  S
O1223      H1243   0.990       .  S
O1223      H1252   0.990       .  S
O1224      C1225   1.283       .  A
C1225      C2555   1.469       .  S
O1226      H1245   0.990   1_655  S
O1226      H1249   0.990       .  S
O1227      H1241   0.990       .  S
O1227      H1248   0.990       .  S
O1228      C1232   1.288       .  A
O1229      C1232   1.282       .  A
O1230      H1240   0.990   1_655  S
O1231      H1244   0.990       .  S
C1232      C2459   1.470       .  S
Zr1255     O1256   2.441       .  S
Zr1255     O1257   2.461       .  S
Zr1255     O1258   2.458       .  S
Zr1255     O1261   2.431       .  S
Zr1255     O1263   2.375       .  S
Zr1255     O1264   2.390       .  S
Zr1255     O1265   2.411       .  S
Zr1255     O1266   2.413       .  S
O1256      H1312   0.990       .  S
O1256      H1320   0.990       .  S
O1257      C1277   1.288       .  A
O1258      C1279   1.287       .  A
O1259     Zr1269   2.424       .  S
O1259      C1278   1.282       .  A
O1260     Zr1268   2.419       .  S
O1260      C1279   1.280       .  A
O1261      C1278   1.284       .  A
O1262     Zr1270   2.413   1_455  S
O1262      C1277   1.279   1_455  A
O1263     Zr1268   2.392       .  S
O1263     Zr1270   2.386       .  S
O1264     Zr1269   2.392       .  S
O1264     Zr1270   2.377       .  S
O1264      H1299   0.967       .  S
O1265     Zr1268   2.396       .  S
O1265     Zr1285   2.400       .  S
O1265      H1302   0.963       .  S
O1266     Zr1269   2.390       .  S
O1266     Zr1285   2.396       .  S
Zr1267     O1292   2.439       .  S
Zr1267     O1286   2.430       .  S
Zr1267     O1294   2.444       .  S
Zr1267     O1282   2.447   1_655  S
Zr1267     O1273   2.405       .  S
Zr1267     O1274   2.405       .  S
Zr1267     O1275   2.381       .  S
Zr1267     O1276   2.386       .  S
Zr1268     O1287   2.438       .  S
Zr1268     O1280   2.436   1_655  S
Zr1268     O1281   2.406   1_655  S
Zr1268     O1274   2.403       .  S
Zr1268     O1275   2.391       .  S
Zr1269     O1271   2.437       .  S
Zr1269     O1293   2.436       .  S
Zr1269     O1295   2.420       .  S
Zr1269     O1273   2.391       .  S
Zr1269     O1276   2.393       .  S
Zr1270     O1296   2.435       .  S
Zr1270     O1297   2.434   1_655  S
Zr1270     O1272   2.437   1_655  S
Zr1270     O1273   2.392       .  S
Zr1270     O1274   2.385       .  S
O1271      H1308   0.991       .  S
O1272      H1303   0.990       .  S
O1272      H1317   0.990       .  S
O1274      H1300   0.964   1_655  S
O1275     Zr1285   2.373       .  S
O1276     Zr1285   2.362       .  S
O1276      H1301   0.965       .  S
C1277      C2424   1.478   1_655  S
C1278      C2667   1.466       .  S
C1279      C2491   1.471       .  S
O1280      H1316   0.990       .  S
O1281      C1283   1.279       .  A
O1282      C1283   1.286       .  A
C1283      C2440   1.460       .  S
O1284     Zr1285   2.438       .  S
O1284      H1313   0.990       .  S
Zr1285     O1288   2.436       .  S
Zr1285     O1289   2.441       .  S
Zr1285     O1290   2.432       .  S
O1286      C1291   1.282       .  A
O1287      H1304   0.990   1_655  S
O1287      H1319   0.990       .  S
O1288      H1305   0.990       .  S
O1289      H1309   0.990       .  S
O1289      H1318   0.990       .  S
O1290      C1291   1.283       .  A
C1291      C2603   1.467       .  S
O1292      H1311   0.990   1_655  S
O1292      H1315   0.990       .  S
O1293      H1307   0.990       .  S
O1293      H1314   0.990       .  S
O1294      C1298   1.285       .  A
O1295      C1298   1.281       .  A
O1296      H1306   0.990       .  S
O1297      H1310   0.990       .  S
C1298      C2411   1.464       .  S
Zr1321     O1322   2.440       .  S
Zr1321     O1323   2.429       .  S
Zr1321     O1324   2.447       .  S
Zr1321     O1327   2.438       .  S
Zr1321     O1329   2.383       .  S
Zr1321     O1330   2.388       .  S
Zr1321     O1331   2.409       .  S
Zr1321     O1332   2.395       .  S
O1322      H1378   0.990       .  S
O1322      H1386   0.990       .  S
O1323      C1343   1.281       .  A
O1324      C1345   1.284       .  A
O1325     Zr1335   2.429       .  S
O1325      C1344   1.282       .  A
O1326     Zr1334   2.418       .  S
O1326      C1345   1.281       .  A
O1327      C1344   1.285       .  A
O1328     Zr1336   2.437       .  S
O1328      C1343   1.284       .  A
O1329     Zr1334   2.396       .  S
O1329     Zr1336   2.368       .  S
O1330     Zr1335   2.391       .  S
O1330     Zr1336   2.375       .  S
O1330      H1365   0.965       .  S
O1331     Zr1334   2.397       .  S
O1331     Zr1351   2.397       .  S
O1331      H1368   0.969       .  S
O1332     Zr1335   2.391       .  S
O1332     Zr1351   2.386       .  S
Zr1333     O1358   2.443       .  S
Zr1333     O1352   2.461       .  S
Zr1333     O1360   2.449       .  S
Zr1333     O1348   2.450       .  S
Zr1333     O1339   2.414       .  S
Zr1333     O1340   2.418       .  S
Zr1333     O1341   2.383       .  S
Zr1333     O1342   2.384       .  S
Zr1334     O1353   2.434       .  S
Zr1334     O1346   2.435       .  S
Zr1334     O1347   2.435       .  S
Zr1334     O1340   2.394       .  S
Zr1334     O1341   2.390       .  S
Zr1335     O1337   2.438       .  S
Zr1335     O1359   2.439       .  S
Zr1335     O1361   2.428       .  S
Zr1335     O1339   2.396       .  S
Zr1335     O1342   2.398       .  S
Zr1336     O1362   2.433       .  S
Zr1336     O1363   2.435       .  S
Zr1336     O1338   2.437       .  S
Zr1336     O1339   2.404       .  S
Zr1336     O1340   2.383       .  S
O1337      H1374   0.990       .  S
O1338      H1369   0.990       .  S
O1338      H1383   0.990       .  S
O1340      H1366   0.964       .  S
O1341     Zr1351   2.384       .  S
O1342     Zr1351   2.387       .  S
O1342      H1367   0.967       .  S
C1343      C2379   1.471       .  S
C1344      C2475   1.469       .  S
C1345      C2747   1.466       .  S
O1346      H1382   0.990       .  S
O1347      C1349   1.284       .  A
O1348      C1349   1.286       .  A
C1349      C3448   1.472       .  S
O1350     Zr1351   2.436       .  S
O1350      H1379   0.990       .  S
Zr1351     O1354   2.437       .  S
Zr1351     O1355   2.438       .  S
Zr1351     O1356   2.406       .  S
O1352      C1357   1.288       .  A
O1353      H1370   0.990       .  S
O1353      H1385   0.990       .  S
O1354      H1371   0.990       .  S
O1355      H1375   0.990       .  S
O1355      H1384   0.990       .  S
O1356      C1357   1.279       .  A
C1357      C2520   1.477       .  S
O1358      H1377   0.990       .  S
O1358      H1381   0.990       .  S
O1359      H1373   0.990       .  S
O1359      H1380   0.990       .  S
O1360      C1364   1.284       .  A
O1361      C1364   1.283       .  A
O1362      H1372   0.990       .  S
O1363      H1376   0.990       .  S
C1364      C2392   1.474       .  S
Zr1387     O1388   2.441       .  S
Zr1387     O1389   2.436       .  S
Zr1387     O1390   2.459       .  S
Zr1387     O1393   2.443       .  S
Zr1387     O1395   2.381       .  S
Zr1387     O1396   2.387       .  S
Zr1387     O1397   2.405       .  S
Zr1387     O1398   2.402       .  S
O1388      H1444   0.991       .  S
O1388      H1452   0.990       .  S
O1389      C1409   1.284       .  A
O1390      C1411   1.286       .  A
O1391     Zr1401   2.409       .  S
O1391      C1410   1.280       .  A
O1392     Zr1400   2.421       .  S
O1392      C1411   1.280       .  A
O1393      C1410   1.286       .  A
O1394     Zr1402   2.426       .  S
O1394      C1409   1.281       .  A
O1395     Zr1400   2.392       .  S
O1395     Zr1402   2.375       .  S
O1396     Zr1401   2.393       .  S
O1396     Zr1402   2.368       .  S
O1396      H1431   0.966       .  S
O1397     Zr1400   2.399       .  S
O1397     Zr1417   2.397       .  S
O1397      H1434   0.965       .  S
O1398     Zr1401   2.400       .  S
O1398     Zr1417   2.392       .  S
Zr1399     O1424   2.442       .  S
Zr1399     O1418   2.464       .  S
Zr1399     O1426   2.446       .  S
Zr1399     O1414   2.435       .  S
Zr1399     O1405   2.407       .  S
Zr1399     O1406   2.421       .  S
Zr1399     O1407   2.383       .  S
Zr1399     O1408   2.376       .  S
Zr1400     O1419   2.435       .  S
Zr1400     O1412   2.436       .  S
Zr1400     O1413   2.422       .  S
Zr1400     O1406   2.397       .  S
Zr1400     O1407   2.398       .  S
Zr1401     O1403   2.437       .  S
Zr1401     O1425   2.438       .  S
Zr1401     O1427   2.433       .  S
Zr1401     O1405   2.387       .  S
Zr1401     O1408   2.393       .  S
Zr1402     O1428   2.436       .  S
Zr1402     O1429   2.436       .  S
Zr1402     O1404   2.437       .  S
Zr1402     O1405   2.402       .  S
Zr1402     O1406   2.388       .  S
O1403      H1440   0.990       .  S
O1404      H1435   0.990       .  S
O1404      H1449   0.990       .  S
O1406      H1432   0.966       .  S
O1407     Zr1417   2.383       .  S
O1408     Zr1417   2.385       .  S
O1408      H1433   0.967       .  S
C1409      C2363   1.469       .  S
C1410      C2344   1.463       .  S
C1411      C2795   1.472       .  S
O1412      H1448   0.990       .  S
O1413      C1415   1.282       .  A
O1414      C1415   1.284       .  A
C1415      C2920   1.464       .  S
O1416     Zr1417   2.440       .  S
O1416      H1445   0.990       .  S
Zr1417     O1420   2.438       .  S
Zr1417     O1421   2.440       .  S
Zr1417     O1422   2.409       .  S
O1418      C1423   1.288       .  A
O1419      H1436   0.990       .  S
O1419      H1451   0.990       .  S
O1420      H1437   0.990       .  S
O1421      H1441   0.990       .  S
O1421      H1450   0.990       .  S
O1422      C1423   1.279       .  A
C1423      C2328   1.480       .  S
O1424      H1443   0.990       .  S
O1424      H1447   0.990       .  S
O1425      H1439   0.990       .  S
O1425      H1446   0.990       .  S
O1426      C1430   1.284       .  A
O1427      C1430   1.284       .  A
O1428      H1438   0.990       .  S
O1429      H1442   0.990       .  S
C1430      C2395   1.476       .  S
Zr1453     O1454   2.439       .  S
Zr1453     O1455   2.432       .  S
Zr1453     O1456   2.454       .  S
Zr1453     O1459   2.442       .  S
Zr1453     O1461   2.384       .  S
Zr1453     O1462   2.388       .  S
Zr1453     O1463   2.406       .  S
Zr1453     O1464   2.397       .  S
O1454      H1510   0.990       .  S
O1454      H1518   0.991       .  S
O1455      C1475   1.283       .  A
O1456      C1477   1.287       .  A
O1457     Zr1467   2.423       .  S
O1457      C1476   1.284       .  A
O1458     Zr1466   2.414       .  S
O1458      C1477   1.281       .  A
O1459      C1476   1.286       .  A
O1460     Zr1468   2.432       .  S
O1460      C1475   1.283       .  A
O1461     Zr1466   2.391       .  S
O1461     Zr1468   2.367       .  S
O1462     Zr1467   2.391       .  S
O1462     Zr1468   2.371       .  S
O1462      H1497   0.966       .  S
O1463     Zr1466   2.394       .  S
O1463     Zr1483   2.391       .  S
O1463      H1500   0.967       .  S
O1464     Zr1467   2.394       .  S
O1464     Zr1483   2.384       .  S
Zr1465     O1490   2.444       .  S
Zr1465     O1484   2.455       .  S
Zr1465     O1492   2.434       .  S
Zr1465     O1480   2.435       .  S
Zr1465     O1471   2.404       .  S
Zr1465     O1472   2.415       .  S
Zr1465     O1473   2.378       .  S
Zr1465     O1474   2.384       .  S
Zr1466     O1485   2.436       .  S
Zr1466     O1478   2.434       .  S
Zr1466     O1479   2.428       .  S
Zr1466     O1472   2.393       .  S
Zr1466     O1473   2.384       .  S
Zr1467     O1469   2.436       .  S
Zr1467     O1491   2.440       .  S
Zr1467     O1493   2.434       .  S
Zr1467     O1471   2.390       .  S
Zr1467     O1474   2.395       .  S
Zr1468     O1494   2.435       .  S
Zr1468     O1495   2.435       .  S
Zr1468     O1470   2.435       .  S
Zr1468     O1471   2.398       .  S
Zr1468     O1472   2.394       .  S
O1469      H1506   0.990       .  S
O1470      H1501   0.990       .  S
O1470      H1515   0.990       .  S
O1472      H1498   0.965       .  S
O1473     Zr1483   2.382       .  S
O1474     Zr1483   2.389       .  S
O1474      H1499   0.966       .  S
C1475      C2376   1.468       .  S
C1476      C3595   1.468       .  S
C1477      C2635   1.469       .  S
O1478      H1514   0.990       .  S
O1479      C1481   1.282       .  A
O1480      C1481   1.284       .  A
C1481      C2539   1.468       .  S
O1482     Zr1483   2.435       .  S
O1482      H1511   0.990       .  S
Zr1483     O1486   2.436       .  S
Zr1483     O1487   2.438       .  S
Zr1483     O1488   2.396       .  S
O1484      C1489   1.286       .  A
O1485      H1502   0.990       .  S
O1485      H1517   0.990       .  S
O1486      H1503   0.990       .  S
O1487      H1507   0.990       .  S
O1487      H1516   0.990       .  S
O1488      C1489   1.278       .  A
C1489      C3419   1.469       .  S
O1490      H1509   0.990       .  S
O1490      H1513   0.991       .  S
O1491      H1505   0.990       .  S
O1491      H1512   0.990       .  S
O1492      C1496   1.282       .  A
O1493      C1496   1.282       .  A
O1494      H1504   0.990       .  S
O1495      H1508   0.990       .  S
C1496      C2315   1.467       .  S
Zr1519     O1520   2.441       .  S
Zr1519     O1521   2.431       .  S
Zr1519     O1522   2.458       .  S
Zr1519     O1525   2.434       .  S
Zr1519     O1527   2.380   1_554  S
Zr1519     O1528   2.388       .  S
Zr1519     O1529   2.407   1_554  S
Zr1519     O1530   2.401   1_554  S
O1520      H1576   0.991       .  S
O1520      H1584   0.990       .  S
O1521      C1541   1.282       .  A
O1522      C1543   1.286   1_554  A
O1523     Zr1533   2.415   1_554  S
O1523      C1542   1.281       .  A
O1524     Zr1532   2.408       .  S
O1524      C1543   1.278       .  A
O1525      C1542   1.284       .  A
O1526     Zr1534   2.430   1_554  S
O1526      C1541   1.282       .  A
O1527     Zr1532   2.396       .  S
O1527     Zr1534   2.376       .  S
O1528     Zr1533   2.395   1_554  S
O1528     Zr1534   2.369   1_554  S
O1528      H1563   0.967       .  S
O1529     Zr1532   2.398       .  S
O1529     Zr1549   2.396       .  S
O1529      H1566   0.964       .  S
O1530     Zr1533   2.398       .  S
O1530     Zr1549   2.387       .  S
Zr1531     O1556   2.443       .  S
Zr1531     O1550   2.458       .  S
Zr1531     O1558   2.428       .  S
Zr1531     O1546   2.427       .  S
Zr1531     O1537   2.404       .  S
Zr1531     O1538   2.413       .  S
Zr1531     O1539   2.380       .  S
Zr1531     O1540   2.378       .  S
Zr1532     O1551   2.439       .  S
Zr1532     O1544   2.434       .  S
Zr1532     O1545   2.425       .  S
Zr1532     O1538   2.389       .  S
Zr1532     O1539   2.388       .  S
Zr1533     O1535   2.435       .  S
Zr1533     O1557   2.437       .  S
Zr1533     O1559   2.431       .  S
Zr1533     O1537   2.390       .  S
Zr1533     O1540   2.387       .  S
Zr1534     O1560   2.435   1_556  S
Zr1534     O1561   2.435       .  S
Zr1534     O1536   2.436       .  S
Zr1534     O1537   2.396       .  S
Zr1534     O1538   2.391       .  S
O1535      H1572   0.990       .  S
O1536      H1567   0.990   1_556  S
O1536      H1581   0.990       .  S
O1538      H1564   0.965       .  S
O1539     Zr1549   2.382       .  S
O1540     Zr1549   2.382       .  S
O1540      H1565   0.966       .  S
C1541      C2360   1.467       .  S
C1542      C3019   1.463       .  S
C1543      C2683   1.465   1_556  S
O1544      H1580   0.990       .  S
O1545      C1547   1.282       .  A
O1546      C1547   1.282       .  A
C1547      C2299   1.462       .  S
O1548     Zr1549   2.438       .  S
O1548      H1577   0.990       .  S
Zr1549     O1552   2.438       .  S
Zr1549     O1553   2.439       .  S
Zr1549     O1554   2.402       .  S
O1550      C1555   1.287       .  A
O1551      H1568   0.990       .  S
O1551      H1583   0.990       .  S
O1552      H1569   0.990       .  S
O1553      H1573   0.990       .  S
O1553      H1582   0.990       .  S
O1554      C1555   1.278       .  A
C1555      C2907   1.472       .  S
O1556      H1575   0.990       .  S
O1556      H1579   0.991       .  S
O1557      H1571   0.990       .  S
O1557      H1578   0.990   1_556  S
O1558      C1562   1.281       .  A
O1559      C1562   1.282       .  A
O1560      H1570   0.990   1_554  S
O1561      H1574   0.990       .  S
C1562      C2312   1.464       .  S
Zr1585     O1586   2.441       .  S
Zr1585     O1587   2.424       .  S
Zr1585     O1588   2.452       .  S
Zr1585     O1591   2.448       .  S
Zr1585     O1593   2.382       .  S
Zr1585     O1594   2.389   1_545  S
Zr1585     O1595   2.406       .  S
Zr1585     O1596   2.392       .  S
O1586      H1642   0.991       .  S
O1586      H1650   0.991       .  S
O1587      C1607   1.281       .  A
O1588      C1609   1.285       .  A
O1589     Zr1599   2.411       .  S
O1589      C1608   1.280   1_565  A
O1590     Zr1598   2.406       .  S
O1590      C1609   1.277       .  A
O1591      C1608   1.288       .  A
O1592     Zr1600   2.434   1_545  S
O1592      C1607   1.283       .  A
O1593     Zr1598   2.389       .  S
O1593     Zr1600   2.369   1_545  S
O1594     Zr1599   2.392       .  S
O1594     Zr1600   2.376       .  S
O1594      H1629   0.965       .  S
O1595     Zr1598   2.395       .  S
O1595     Zr1615   2.400       .  S
O1595      H1632   0.967       .  S
O1596     Zr1599   2.387   1_545  S
O1596     Zr1615   2.387       .  S
Zr1597     O1622   2.443       .  S
Zr1597     O1616   2.456       .  S
Zr1597     O1624   2.432       .  S
Zr1597     O1612   2.419   1_565  S
Zr1597     O1603   2.409       .  S
Zr1597     O1604   2.417   1_565  S
Zr1597     O1605   2.381   1_565  S
Zr1597     O1606   2.374       .  S
Zr1598     O1617   2.438       .  S
Zr1598     O1610   2.435       .  S
Zr1598     O1611   2.420       .  S
Zr1598     O1604   2.393       .  S
Zr1598     O1605   2.390       .  S
Zr1599     O1601   2.437       .  S
Zr1599     O1623   2.439       .  S
Zr1599     O1625   2.422       .  S
Zr1599     O1603   2.388       .  S
Zr1599     O1606   2.390       .  S
Zr1600     O1626   2.433       .  S
Zr1600     O1627   2.437       .  S
Zr1600     O1602   2.440       .  S
Zr1600     O1603   2.402       .  S
Zr1600     O1604   2.391   1_565  S
O1601      H1638   0.990       .  S
O1602      H1633   0.990   1_565  S
O1602      H1647   0.990       .  S
O1604      H1630   0.966       .  S
O1605     Zr1615   2.382       .  S
O1606     Zr1615   2.383   1_565  S
O1606      H1631   0.967       .  S
C1607      C2267   1.464       .  S
C1608      C2248   1.467       .  S
C1609      C3064   1.463       .  S
O1610      H1646   0.990       .  S
O1611      C1613   1.281       .  A
O1612      C1613   1.281       .  A
C1613      C2987   1.457       .  S
O1614     Zr1615   2.438       .  S
O1614      H1643   0.990       .  S
Zr1615     O1618   2.437       .  S
Zr1615     O1619   2.437       .  S
Zr1615     O1620   2.427       .  S
O1616      C1621   1.288   1_565  A
O1617      H1634   0.990       .  S
O1617      H1649   0.990       .  S
O1618      H1635   0.990       .  S
O1619      H1639   0.990       .  S
O1619      H1648   0.990       .  S
O1620      C1621   1.283       .  A
C1621      C2232   1.482       .  S
O1622      H1641   0.990       .  S
O1622      H1645   0.990       .  S
O1623      H1637   0.990       .  S
O1623      H1644   0.990       .  S
O1624      C1628   1.282       .  A
O1625      C1628   1.281       .  A
O1626      H1636   0.990       .  S
O1627      H1640   0.990       .  S
C1628      C2280   1.465       .  S
Zr1651     O1652   2.440       .  S
Zr1651     O1653   2.433       .  S
Zr1651     O1654   2.457       .  S
Zr1651     O1657   2.425       .  S
Zr1651     O1659   2.381   1_554  S
Zr1651     O1660   2.391       .  S
Zr1651     O1661   2.402   1_554  S
Zr1651     O1662   2.397   1_554  S
O1652      H1708   0.990       .  S
O1652      H1716   0.990       .  S
O1653      C1673   1.283       .  A
O1654      C1675   1.287   1_554  A
O1655     Zr1665   2.427   1_554  S
O1655      C1674   1.284       .  A
O1656     Zr1664   2.414       .  S
O1656      C1675   1.280       .  A
O1657      C1674   1.283       .  A
O1658     Zr1666   2.429   1_554  S
O1658      C1673   1.282       .  A
O1659     Zr1664   2.392       .  S
O1659     Zr1666   2.373       .  S
O1660     Zr1665   2.391   1_554  S
O1660     Zr1666   2.373   1_554  S
O1660      H1695   0.965       .  S
O1661     Zr1664   2.393       .  S
O1661     Zr1681   2.397       .  S
O1661      H1698   0.969       .  S
O1662     Zr1665   2.394       .  S
O1662     Zr1681   2.389       .  S
Zr1663     O1688   2.443       .  S
Zr1663     O1682   2.456       .  S
Zr1663     O1690   2.439       .  S
Zr1663     O1678   2.436       .  S
Zr1663     O1669   2.411       .  S
Zr1663     O1670   2.413       .  S
Zr1663     O1671   2.380       .  S
Zr1663     O1672   2.380       .  S
Zr1664     O1683   2.434       .  S
Zr1664     O1676   2.434       .  S
Zr1664     O1677   2.420       .  S
Zr1664     O1670   2.391       .  S
Zr1664     O1671   2.390       .  S
Zr1665     O1667   2.437       .  S
Zr1665     O1689   2.440   1_556  S
Zr1665     O1691   2.431       .  S
Zr1665     O1669   2.391       .  S
Zr1665     O1672   2.393       .  S
Zr1666     O1692   2.435   1_556  S
Zr1666     O1693   2.437       .  S
Zr1666     O1668   2.438       .  S
Zr1666     O1669   2.402       .  S
Zr1666     O1670   2.387       .  S
O1667      H1704   0.990       .  S
O1668      H1699   0.990   1_556  S
O1668      H1713   0.990       .  S
O1670      H1696   0.965       .  S
O1671     Zr1681   2.379       .  S
O1672     Zr1681   2.385       .  S
O1672      H1697   0.966       .  S
C1673      C2219   1.469       .  S
C1674      C2584   1.462       .  S
C1675      C3131   1.470   1_556  S
O1676      H1712   0.990       .  S
O1677      C1679   1.281       .  A
O1678      C1679   1.285       .  A
C1679      C3528   1.465       .  S
O1680     Zr1681   2.435       .  S
O1680      H1709   0.990       .  S
Zr1681     O1684   2.435       .  S
Zr1681     O1685   2.437       .  S
Zr1681     O1686   2.413       .  S
O1682      C1687   1.288       .  A
O1683      H1700   0.990       .  S
O1683      H1715   0.990       .  S
O1684      H1701   0.990       .  S
O1685      H1705   0.990       .  S
O1685      H1714   0.990       .  S
O1686      C1687   1.279       .  A
C1687      C2427   1.476       .  S
O1688      H1707   0.990       .  S
O1688      H1711   0.991       .  S
O1689      H1703   0.990       .  S
O1689      H1710   0.990       .  S
O1690      C1694   1.283       .  A
O1691      C1694   1.283       .  A
O1692      H1702   0.990       .  S
O1693      H1706   0.991       .  S
C1694      C2283   1.470       .  S
Zr1717     O1718   2.442       .  S
Zr1717     O1719   2.425       .  S
Zr1717     O1720   2.448       .  S
Zr1717     O1723   2.430       .  S
Zr1717     O1725   2.380       .  S
Zr1717     O1726   2.392   1_545  S
Zr1717     O1727   2.406       .  S
Zr1717     O1728   2.397       .  S
O1718      H1774   0.990       .  S
O1718      H1782   0.990       .  S
O1719      C1739   1.281       .  A
O1720      C1741   1.284       .  A
O1721     Zr1731   2.415       .  S
O1721      C1740   1.280   1_565  A
O1722     Zr1730   2.414       .  S
O1722      C1741   1.280       .  A
O1723      C1740   1.284       .  A
O1724     Zr1732   2.425   1_545  S
O1724      C1739   1.281       .  A
O1725     Zr1730   2.389       .  S
O1725     Zr1732   2.370   1_545  S
O1726     Zr1731   2.394       .  S
O1726     Zr1732   2.372       .  S
O1726      H1761   0.965       .  S
O1727     Zr1730   2.397       .  S
O1727     Zr1747   2.399       .  S
O1727      H1764   0.970       .  S
O1728     Zr1731   2.397   1_545  S
O1728     Zr1747   2.389       .  S
Zr1729     O1754   2.442       .  S
Zr1729     O1748   2.447       .  S
Zr1729     O1756   2.446       .  S
Zr1729     O1744   2.436       .  S
Zr1729     O1735   2.406       .  S
Zr1729     O1736   2.415   1_565  S
Zr1729     O1737   2.384   1_565  S
Zr1729     O1738   2.382       .  S
Zr1730     O1749   2.434       .  S
Zr1730     O1742   2.435       .  S
Zr1730     O1743   2.425       .  S
Zr1730     O1736   2.393       .  S
Zr1730     O1737   2.389       .  S
Zr1731     O1733   2.433       .  S
Zr1731     O1755   2.440       .  S
Zr1731     O1757   2.429       .  S
Zr1731     O1735   2.387       .  S
Zr1731     O1738   2.393       .  S
Zr1732     O1758   2.436       .  S
Zr1732     O1759   2.435       .  S
Zr1732     O1734   2.437       .  S
Zr1732     O1735   2.398       .  S
Zr1732     O1736   2.386   1_565  S
O1733      H1770   0.990       .  S
O1734      H1765   0.990       .  S
O1734      H1779   0.990   1_565  S
O1736      H1762   0.966   1_545  S
O1737     Zr1747   2.385       .  S
O1738     Zr1747   2.387   1_565  S
O1738      H1763   0.968       .  S
C1739      C2264   1.463       .  S
C1740      C2891   1.458       .  S
C1741      C3176   1.467       .  S
O1742      H1778   0.990       .  S
O1743      C1745   1.283       .  A
O1744      C1745   1.284   1_565  A
C1745      C2184   1.465       .  S
O1746     Zr1747   2.441       .  S
O1746      H1775   0.991       .  S
Zr1747     O1750   2.437       .  S
Zr1747     O1751   2.440       .  S
Zr1747     O1752   2.412       .  S
O1748      C1753   1.286   1_565  A
O1749      H1766   0.990       .  S
O1749      H1781   0.990       .  S
O1750      H1767   0.990       .  S
O1751      H1771   0.990       .  S
O1751      H1780   0.990       .  S
O1752      C1753   1.280       .  A
C1753      C2952   1.471       .  S
O1754      H1773   0.991       .  S
O1754      H1777   0.991       .  S
O1755      H1769   0.990       .  S
O1755      H1776   0.990       .  S
O1756      C1760   1.283       .  A
O1757      C1760   1.283       .  A
O1758      H1768   0.990       .  S
O1759      H1772   0.990       .  S
C1760      C2203   1.474       .  S
Zr1783     O1784   2.438       .  S
Zr1783     O1785   2.435       .  S
Zr1783     O1786   2.457       .  S
Zr1783     O1789   2.432       .  S
Zr1783     O1791   2.381       .  S
Zr1783     O1792   2.392       .  S
Zr1783     O1793   2.407       .  S
Zr1783     O1794   2.397       .  S
O1784      H1840   0.990       .  S
O1784      H1848   0.990       .  S
O1785      C1805   1.283       .  A
O1786      C1807   1.287       .  A
O1787     Zr1797   2.432       .  S
O1787      C1806   1.284       .  A
O1788     Zr1796   2.420       .  S
O1788      C1807   1.281       .  A
O1789      C1806   1.284       .  A
O1790     Zr1798   2.430       .  S
O1790      C1805   1.282       .  A
O1791     Zr1796   2.391       .  S
O1791     Zr1798   2.373       .  S
O1792     Zr1797   2.391       .  S
O1792     Zr1798   2.374       .  S
O1792      H1827   0.965       .  S
O1793     Zr1796   2.393       .  S
O1793     Zr1813   2.404       .  S
O1793      H1830   0.968       .  S
O1794     Zr1797   2.391       .  S
O1794     Zr1813   2.385       .  S
Zr1795     O1820   2.442       .  S
Zr1795     O1814   2.443       .  S
Zr1795     O1822   2.440       .  S
Zr1795     O1810   2.436       .  S
Zr1795     O1801   2.408       .  S
Zr1795     O1802   2.412       .  S
Zr1795     O1803   2.382       .  S
Zr1795     O1804   2.383       .  S
Zr1796     O1815   2.436       .  S
Zr1796     O1808   2.434       .  S
Zr1796     O1809   2.420       .  S
Zr1796     O1802   2.395       .  S
Zr1796     O1803   2.390       .  S
Zr1797     O1799   2.436       .  S
Zr1797     O1821   2.440       .  S
Zr1797     O1823   2.435       .  S
Zr1797     O1801   2.395       .  S
Zr1797     O1804   2.397       .  S
Zr1798     O1824   2.436       .  S
Zr1798     O1825   2.434       .  S
Zr1798     O1800   2.437       .  S
Zr1798     O1801   2.398       .  S
Zr1798     O1802   2.388       .  S
O1799      H1836   0.990       .  S
O1800      H1831   0.990       .  S
O1800      H1845   0.990       .  S
O1802      H1828   0.966       .  S
O1803     Zr1813   2.382       .  S
O1804     Zr1813   2.385       .  S
O1804      H1829   0.966       .  S
C1805      C2216   1.467       .  S
C1806      C3384   1.466       .  S
C1807      C3256   1.473       .  S
O1808      H1844   0.990       .  S
O1809      C1811   1.281       .  A
O1810      C1811   1.284       .  A
C1811      C2443   1.463       .  S
O1812     Zr1813   2.436       .  S
O1812      H1841   0.990       .  S
Zr1813     O1816   2.436       .  S
Zr1813     O1817   2.440       .  S
Zr1813     O1818   2.408       .  S
O1814      C1819   1.284       .  A
O1815      H1832   0.990       .  S
O1815      H1847   0.990       .  S
O1816      H1833   0.990       .  S
O1817      H1837   0.990       .  S
O1817      H1846   0.990       .  S
O1818      C1819   1.279       .  A
C1819      C3499   1.471       .  S
O1820      H1839   0.991       .  S
O1820      H1843   0.990       .  S
O1821      H1835   0.990       .  S
O1821      H1842   0.990       .  S
O1822      C1826   1.283       .  A
O1823      C1826   1.285       .  A
O1824      H1834   0.990       .  S
O1825      H1838   0.990       .  S
C1826      C2200   1.475       .  S
Zr1849     O1850   2.442       .  S
Zr1849     O1851   2.464       .  S
Zr1849     O1852   2.438       .  S
Zr1849     O1855   2.434       .  S
Zr1849     O1857   2.378       .  S
Zr1849     O1858   2.381       .  S
Zr1849     O1859   2.418       .  S
Zr1849     O1860   2.407       .  S
O1850      H1906   0.991       .  S
O1850      H1914   0.990       .  S
O1851      C1871   1.288       .  A
O1852      C1873   1.282       .  A
O1853     Zr1863   2.410       .  S
O1853      C1872   1.280       .  A
O1854     Zr1862   2.416       .  S
O1854      C1873   1.280       .  A
O1855      C1872   1.283       .  A
O1856     Zr1864   2.410       .  S
O1856      C1871   1.279       .  A
O1857     Zr1862   2.397       .  S
O1857     Zr1864   2.385       .  S
O1858     Zr1863   2.390       .  S
O1858     Zr1864   2.378       .  S
O1858      H1893   0.967       .  S
O1859     Zr1862   2.397       .  S
O1859     Zr1879   2.403       .  S
O1859      H1896   0.964       .  S
O1860     Zr1863   2.385       .  S
O1860     Zr1879   2.399       .  S
Zr1861     O1886   2.440       .  S
Zr1861     O1880   2.424       .  S
Zr1861     O1888   2.452       .  S
Zr1861     O1876   2.438       .  S
Zr1861     O1867   2.403       .  S
Zr1861     O1868   2.402       .  S
Zr1861     O1869   2.386       .  S
Zr1861     O1870   2.381       .  S
Zr1862     O1881   2.439       .  S
Zr1862     O1874   2.434       .  S
Zr1862     O1875   2.421       .  S
Zr1862     O1868   2.395       .  S
Zr1862     O1869   2.389       .  S
Zr1863     O1865   2.436       .  S
Zr1863     O1887   2.433       .  S
Zr1863     O1889   2.410       .  S
Zr1863     O1867   2.396       .  S
Zr1863     O1870   2.385       .  S
Zr1864     O1890   2.434       .  S
Zr1864     O1891   2.436       .  S
Zr1864     O1866   2.439       .  S
Zr1864     O1867   2.399       .  S
Zr1864     O1868   2.382       .  S
O1865      H1902   0.990       .  S
O1866      H1897   0.991       .  S
O1866      H1911   0.990       .  S
O1868      H1894   0.965       .  S
O1869     Zr1879   2.377       .  S
O1870     Zr1879   2.365       .  S
O1870      H1895   0.966       .  S
C1871      C2331   1.479       .  S
C1872      C3211   1.462       .  S
C1873      C2168   1.463       .  S
O1874      H1910   0.990       .  S
O1875      C1877   1.283       .  A
O1876      C1877   1.285       .  A
C1877      C2296   1.463       .  S
O1878     Zr1879   2.441       .  S
O1878      H1907   0.990       .  S
Zr1879     O1882   2.438       .  S
Zr1879     O1883   2.439       .  S
Zr1879     O1884   2.442       .  S
O1880      C1885   1.281       .  A
O1881      H1898   0.990       .  S
O1881      H1913   0.990       .  S
O1882      H1899   0.990       .  S
O1883      H1903   0.990       .  S
O1883      H1912   0.990       .  S
O1884      C1885   1.285       .  A
C1885      C2152   1.468       .  S
O1886      H1905   0.991       .  S
O1886      H1909   0.990       .  S
O1887      H1901   0.990       .  S
O1887      H1908   0.990       .  S
O1888      C1892   1.285       .  A
O1889      C1892   1.280       .  A
O1890      H1900   0.990       .  S
O1891      H1904   0.990       .  S
C1892      C2456   1.463       .  S
Zr1915     O1916   2.443       .  S
Zr1915     O1917   2.458       .  S
Zr1915     O1918   2.452       .  S
Zr1915     O1921   2.441       .  S
Zr1915     O1923   2.377       .  S
Zr1915     O1924   2.390   1_545  S
Zr1915     O1925   2.417       .  S
Zr1915     O1926   2.407       .  S
O1916      H1972   0.990       .  S
O1916      H1980   0.991       .  S
O1917      C1937   1.288       .  A
O1918      C1939   1.285       .  A
O1919     Zr1929   2.438       .  S
O1919      C1938   1.285       .  A
O1920     Zr1928   2.425       .  S
O1920      C1939   1.282       .  A
O1921      C1938   1.285   1_545  A
O1922     Zr1930   2.402       .  S
O1922      C1937   1.277   1_565  A
O1923     Zr1928   2.394       .  S
O1923     Zr1930   2.383   1_545  S
O1924     Zr1929   2.392       .  S
O1924     Zr1930   2.382       .  S
O1924      H1959   0.965       .  S
O1925     Zr1928   2.400       .  S
O1925     Zr1945   2.405       .  S
O1925      H1962   0.964       .  S
O1926     Zr1929   2.388   1_545  S
O1926     Zr1945   2.394       .  S
Zr1927     O1952   2.440       .  S
Zr1927     O1946   2.438       .  S
Zr1927     O1954   2.453       .  S
Zr1927     O1942   2.451       .  S
Zr1927     O1933   2.413       .  S
Zr1927     O1934   2.404       .  S
Zr1927     O1935   2.385   1_565  S
Zr1927     O1936   2.389       .  S
Zr1928     O1947   2.438       .  S
Zr1928     O1940   2.433       .  S
Zr1928     O1941   2.425       .  S
Zr1928     O1934   2.395   1_545  S
Zr1928     O1935   2.392       .  S
Zr1929     O1931   2.437       .  S
Zr1929     O1953   2.436       .  S
Zr1929     O1955   2.421       .  S
Zr1929     O1933   2.400       .  S
Zr1929     O1936   2.399       .  S
Zr1930     O1956   2.432       .  S
Zr1930     O1957   2.435       .  S
Zr1930     O1932   2.439       .  S
Zr1930     O1933   2.402       .  S
Zr1930     O1934   2.374       .  S
O1931      H1968   0.990       .  S
O1932      H1963   0.990       .  S
O1932      H1977   0.990   1_565  S
O1934      H1960   0.964       .  S
O1935     Zr1945   2.377       .  S
O1936     Zr1945   2.368   1_565  S
O1936      H1961   0.966       .  S
C1937      C2696   1.471       .  S
C1938      C2251   1.474       .  S
C1939      C2171   1.471       .  S
O1940      H1976   0.990       .  S
O1941      C1943   1.284       .  A
O1942      C1943   1.288   1_565  A
C1943      C2808   1.471       .  S
O1944     Zr1945   2.440       .  S
O1944      H1973   0.990       .  S
Zr1945     O1948   2.436       .  S
Zr1945     O1949   2.441       .  S
Zr1945     O1950   2.439       .  S
O1946      C1951   1.284       .  A
O1947      H1964   0.990       .  S
O1947      H1979   0.990       .  S
O1948      H1965   0.990       .  S
O1949      H1969   0.990   1_545  S
O1949      H1978   0.990       .  S
O1950      C1951   1.284   1_545  A
C1951      C2139   1.476       .  S
O1952      H1971   0.991       .  S
O1952      H1975   0.990       .  S
O1953      H1967   0.990       .  S
O1953      H1974   0.990       .  S
O1954      C1958   1.285       .  A
O1955      C1958   1.281       .  A
O1956      H1966   0.990       .  S
O1957      H1970   0.990       .  S
C1958      C2408   1.465       .  S
Zr1981     O1982   2.442       .  S
Zr1981     O1983   2.447       .  S
Zr1981     O1984   2.458       .  S
Zr1981     O1987   2.430       .  S
Zr1981     O1989   2.373       .  S
Zr1981     O1990   2.393       .  S
Zr1981     O1991   2.410       .  S
Zr1981     O1992   2.405       .  S
O1982      H2038   0.990       .  S
O1982      H2046   0.990       .  S
O1983      C2003   1.285       .  A
O1984      C2005   1.286       .  A
O1985     Zr1995   2.427       .  S
O1985      C2004   1.283       .  A
O1986     Zr1994   2.423       .  S
O1986      C2005   1.281       .  A
O1987      C2004   1.283       .  A
O1988     Zr1996   2.403       .  S
O1988      C2003   1.277   1_455  A
O1989     Zr1994   2.396       .  S
O1989     Zr1996   2.386   1_655  S
O1990     Zr1995   2.396       .  S
O1990     Zr1996   2.380   1_655  S
O1990      H2025   0.966       .  S
O1991     Zr1994   2.392       .  S
O1991     Zr2011   2.407       .  S
O1991      H2028   0.964       .  S
O1992     Zr1995   2.388       .  S
O1992     Zr2011   2.386       .  S
Zr1993     O2018   2.446       .  S
Zr1993     O2012   2.431   1_554  S
Zr1993     O2020   2.448       .  S
Zr1993     O2008   2.447   1_655  S
Zr1993     O1999   2.405       .  S
Zr1993     O2000   2.401   1_655  S
Zr1993     O2001   2.387       .  S
Zr1993     O2002   2.385       .  S
Zr1994     O2013   2.437       .  S
Zr1994     O2006   2.435   1_655  S
Zr1994     O2007   2.416   1_655  S
Zr1994     O2000   2.403   1_655  S
Zr1994     O2001   2.387       .  S
Zr1995     O1997   2.437       .  S
Zr1995     O2019   2.436       .  S
Zr1995     O2021   2.431       .  S
Zr1995     O1999   2.393       .  S
Zr1995     O2002   2.386       .  S
Zr1996     O2022   2.437   1_455  S
Zr1996     O2023   2.436       .  S
Zr1996     O1998   2.436       .  S
Zr1996     O1999   2.395   1_455  S
Zr1996     O2000   2.384       .  S
O1997      H2034   0.990       .  S
O1998      H2029   0.990       .  S
O1998      H2043   0.990       .  S
O2000      H2026   0.965       .  S
O2001     Zr2011   2.376       .  S
O2002     Zr2011   2.363       .  S
O2002      H2027   0.965       .  S
C2003      C3192   1.469   1_655  S
C2004      C2347   1.464       .  S
C2005      C2123   1.476       .  S
O2006      H2042   0.990       .  S
O2007      C2009   1.282       .  A
O2008      C2009   1.287       .  A
C2009      C3096   1.464   1_554  S
O2010     Zr2011   2.438       .  S
O2010      H2039   0.990       .  S
Zr2011     O2014   2.436       .  S
Zr2011     O2015   2.440       .  S
Zr2011     O2016   2.435       .  S
O2012      C2017   1.284       .  A
O2013      H2030   0.990       .  S
O2013      H2045   0.990       .  S
O2014      H2031   0.990       .  S
O2015      H2035   0.990       .  S
O2015      H2044   0.990       .  S
O2016      C2017   1.284   1_554  A
C2017      C2155   1.470       .  S
O2018      H2037   0.990       .  S
O2018      H2041   0.990   1_655  S
O2019      H2033   0.990       .  S
O2019      H2040   0.990       .  S
O2020      C2024   1.286       .  A
O2021      C2024   1.284       .  A
O2022      H2032   0.990   1_655  S
O2023      H2036   0.990       .  S
C2024      C2504   1.468       .  S
Zr2047     O2048   2.441       .  S
Zr2047     O2049   2.464       .  S
Zr2047     O2050   2.441       .  S
Zr2047     O2053   2.431       .  S
Zr2047     O2055   2.377       .  S
Zr2047     O2056   2.384   1_545  S
Zr2047     O2057   2.414       .  S
Zr2047     O2058   2.409       .  S
O2048      H2104   0.990       .  S
O2048      H2112   0.990       .  S
O2049      C2069   1.289       .  A
O2050      C2071   1.283       .  A
O2051     Zr2061   2.416       .  S
O2051      C2070   1.281   1_565  A
O2052     Zr2060   2.436       .  S
O2052      C2071   1.284       .  A
O2053      C2070   1.283       .  A
O2054     Zr2062   2.424   1_455  S
O2054      C2069   1.281   1_465  A
O2055     Zr2060   2.397       .  S
O2055     Zr2062   2.382   1_545  S
O2056     Zr2061   2.392       .  S
O2056     Zr2062   2.380       .  S
O2056      H2091   0.968       .  S
O2057     Zr2060   2.395       .  S
O2057     Zr2077   2.403       .  S
O2057      H2094   0.964       .  S
O2058     Zr2061   2.389   1_545  S
O2058     Zr2077   2.400       .  S
Zr2059     O2084   2.439       .  S
Zr2059     O2078   2.435       .  S
Zr2059     O2086   2.455       .  S
Zr2059     O2074   2.445   1_655  S
Zr2059     O2065   2.405       .  S
Zr2059     O2066   2.408       .  S
Zr2059     O2067   2.384   1_565  S
Zr2059     O2068   2.384       .  S
Zr2060     O2079   2.437       .  S
Zr2060     O2072   2.435   1_655  S
Zr2060     O2073   2.417   1_655  S
Zr2060     O2066   2.403   1_545  S
Zr2060     O2067   2.393       .  S
Zr2061     O2063   2.438       .  S
Zr2061     O2085   2.437       .  S
Zr2061     O2087   2.414       .  S
Zr2061     O2065   2.389       .  S
Zr2061     O2068   2.391       .  S
Zr2062     O2088   2.435       .  S
Zr2062     O2089   2.435   1_655  S
Zr2062     O2064   2.437   1_655  S
Zr2062     O2065   2.401       .  S
Zr2062     O2066   2.385       .  S
O2063      H2100   0.991       .  S
O2064      H2095   0.990       .  S
O2064      H2109   0.990   1_565  S
O2066      H2092   0.965   1_655  S
O2067     Zr2077   2.370       .  S
O2068     Zr2077   2.368   1_565  S
O2068      H2093   0.966       .  S
C2069      C2235   1.484   1_655  S
C2070      C2712   1.464       .  S
C2071      C2120   1.473       .  S
O2072      H2108   0.990       .  S
O2073      C2075   1.282       .  A
O2074      C2075   1.286   1_565  A
C2075      C2187   1.464       .  S
O2076     Zr2077   2.438       .  S
O2076      H2105   0.991       .  S
Zr2077     O2080   2.438       .  S
Zr2077     O2081   2.439       .  S
Zr2077     O2082   2.444       .  S
O2078      C2083   1.284       .  A
O2079      H2096   0.990   1_655  S
O2079      H2111   0.990       .  S
O2080      H2097   0.990       .  S
O2081      H2101   0.990       .  S
O2081      H2110   0.990       .  S
O2082      C2083   1.284   1_545  A
C2083      C2136   1.475       .  S
O2084      H2103   0.990   1_655  S
O2084      H2107   0.990       .  S
O2085      H2099   0.990       .  S
O2085      H2106   0.990       .  S
O2086      C2090   1.287       .  A
O2087      C2090   1.280       .  A
O2088      H2098   0.990   1_655  S
O2089      H2102   0.990       .  S
C2090      C2571   1.469       .  S
C2113      C2118   1.380       .  A
C2113      C2114   1.405       .  A
C2113      O2119   1.321       .  A
C2114      C2115   1.405       .  A
C2114      H2125   1.082       .  S
C2115      C2124   1.364       .  A
C2115      C2116   1.380       .  A
C2116      C2117   1.405       .  A
C2116      O2122   1.321       .  A
C2117      C2118   1.404       .  A
C2117      H2126   1.082       .  S
C2118      C2121   1.363       .  A
O2119      C2120   1.332       .  A
C2120      C2121   1.391       .  A
C2121      H2127   1.083       .  S
O2122      C2123   1.332       .  A
C2123      C2124   1.393       .  A
C2124      H2128   1.083       .  S
C2129      C2134   1.380       .  A
C2129      C2130   1.407       .  A
C2129      O2135   1.323       .  A
C2130      C2131   1.407       .  A
C2130      H2141   1.082       .  S
C2131      C2140   1.366       .  A
C2131      C2132   1.380       .  A
C2132      C2133   1.404       .  A
C2132      O2138   1.320       .  A
C2133      C2134   1.404       .  A
C2133      H2142   1.082       .  S
C2134      C2137   1.363       .  A
O2135      C2136   1.333       .  A
C2136      C2137   1.392       .  A
C2137      H2143   1.082       .  S
O2138      C2139   1.331       .  A
C2139      C2140   1.394       .  A
C2140      H2144   1.082       .  S
C2145      C2150   1.381       .  A
C2145      C2146   1.403       .  A
C2145      O2151   1.319       .  A
C2146      C2147   1.402       .  A
C2146      H2157   1.082       .  S
C2147      C2156   1.361       .  A
C2147      C2148   1.381       .  A
C2148      C2149   1.405       .  A
C2148      O2154   1.320       .  A
C2149      C2150   1.404       .  A
C2149      H2158   1.082       .  S
C2150      C2153   1.364       .  A
O2151      C2152   1.331       .  A
C2152      C2153   1.391       .  A
C2153      H2159   1.082       .  S
O2154      C2155   1.331       .  A
C2155      C2156   1.391       .  A
C2156      H2160   1.083       .  S
C2161      C2166   1.381       .  A
C2161      C2162   1.401       .  A
C2161      O2167   1.318       .  A
C2162      C2163   1.402       .  A
C2162      H2173   1.082       .  S
C2163      C2172   1.359       .  A
C2163      C2164   1.381       .  A
C2164      C2165   1.404       .  A
C2164      O2170   1.321       .  A
C2165      C2166   1.404       .  A
C2165      H2174   1.082       .  S
C2166      C2169   1.360       .  A
O2167      C2168   1.329       .  A
C2168      C2169   1.391       .  A
C2169      H2175   1.083       .  S
O2170      C2171   1.332       .  A
C2171      C2172   1.390       .  A
C2172      H2176   1.083       .  S
C2177      C2182   1.380       .  A
C2177      C2178   1.405   1_545  A
C2177      O2183   1.320   1_545  A
C2178      C2179   1.404       .  A
C2178      H2189   1.082       .  S
C2179      C2188   1.363       .  A
C2179      C2180   1.381   1_565  A
C2180      C2181   1.399       .  A
C2180      O2186   1.314       .  A
C2181      C2182   1.398       .  A
C2181      H2190   1.082       .  S
C2182      C2185   1.357       .  A
O2183      C2184   1.332   1_565  A
C2184      C2185   1.389       .  A
C2185      H2191   1.083       .  S
O2186      C2187   1.328       .  A
C2187      C2188   1.392   1_545  A
C2188      H2192   1.083       .  S
C2193      C2198   1.380       .  A
C2193      C2194   1.406       .  A
C2193      O2199   1.321       .  A
C2194      C2195   1.405       .  A
C2194      H2205   1.082       .  S
C2195      C2204   1.364       .  A
C2195      C2196   1.380       .  A
C2196      C2197   1.405       .  A
C2196      O2202   1.321       .  A
C2197      C2198   1.404       .  A
C2197      H2206   1.082       .  S
C2198      C2201   1.364       .  A
O2199      C2200   1.333       .  A
C2200      C2201   1.392       .  A
C2201      H2207   1.082       .  S
O2202      C2203   1.332       .  A
C2203      C2204   1.392       .  A
C2204      H2208   1.083       .  S
C2209      C2214   1.381       .  A
C2209      C2210   1.403       .  A
C2209      O2215   1.319       .  A
C2210      C2211   1.402       .  A
C2210      H2221   1.082       .  S
C2211      C2220   1.361       .  A
C2211      C2212   1.381       .  A
C2212      C2213   1.404       .  A
C2212      O2218   1.319       .  A
C2213      C2214   1.403       .  A
C2213      H2222   1.082       .  S
C2214      C2217   1.362       .  A
O2215      C2216   1.330       .  A
C2216      C2217   1.391       .  A
C2217      H2223   1.083       .  S
O2218      C2219   1.331       .  A
C2219      C2220   1.391       .  A
C2220      H2224   1.083       .  S
C2225      C2230   1.379   1_556  A
C2225      C2226   1.407   1_556  A
C2225      O2231   1.321       .  A
C2226      C2227   1.406       .  A
C2226      H2237   1.082       .  S
C2227      C2236   1.369   1_455  A
C2227      C2228   1.379       .  A
C2228      C2229   1.409   1_545  A
C2228      O2234   1.321   1_545  A
C2229      C2230   1.407   1_565  A
C2229      H2238   1.082       .  S
C2230      C2233   1.369   1_544  A
O2231      C2232   1.333       .  A
C2232      C2233   1.395   1_545  A
C2233      H2239   1.082       .  S
O2234      C2235   1.335   1_565  A
C2235      C2236   1.394   1_455  A
C2236      H2240   1.082       .  S
C2241      C2246   1.380   1_565  A
C2241      C2242   1.404       .  A
C2241      O2247   1.316   1_655  A
C2242      C2243   1.402       .  A
C2242      H2253   1.082       .  S
C2243      C2252   1.364       .  A
C2243      C2244   1.380   1_565  A
C2244      C2245   1.405       .  A
C2244      O2250   1.319       .  A
C2245      C2246   1.403       .  A
C2245      H2254   1.082       .  S
C2246      C2249   1.365   1_655  A
O2247      C2248   1.331   1_565  A
C2248      C2249   1.390       .  A
C2249      H2255   1.082       .  S
O2250      C2251   1.332   1_545  A
C2251      C2252   1.393       .  A
C2252      H2256   1.083       .  S
C2257      C2262   1.381       .  A
C2257      C2258   1.402       .  A
C2257      O2263   1.317       .  A
C2258      C2259   1.401       .  A
C2258      H2269   1.082       .  S
C2259      C2268   1.361       .  A
C2259      C2260   1.381       .  A
C2260      C2261   1.402       .  A
C2260      O2266   1.317       .  A
C2261      C2262   1.401       .  A
C2261      H2270   1.082       .  S
C2262      C2265   1.360       .  A
O2263      C2264   1.330       .  A
C2264      C2265   1.390       .  A
C2265      H2271   1.083       .  S
O2266      C2267   1.330       .  A
C2267      C2268   1.390       .  A
C2268      H2272   1.082       .  S
C2273      C2278   1.381       .  A
C2273      C2274   1.403       .  A
C2273      O2279   1.318       .  A
C2274      C2275   1.403       .  A
C2274      H2285   1.082       .  S
C2275      C2284   1.363       .  A
C2275      C2276   1.381       .  A
C2276      C2277   1.403       .  A
C2276      O2282   1.318       .  A
C2277      C2278   1.401       .  A
C2277      H2286   1.082       .  S
C2278      C2281   1.361       .  A
O2279      C2280   1.330       .  A
C2280      C2281   1.390       .  A
C2281      H2287   1.083       .  S
O2282      C2283   1.330       .  A
C2283      C2284   1.392       .  A
C2284      H2288   1.083       .  S
C2289      C2294   1.381       .  A
C2289      C2290   1.403       .  A
C2289      O2295   1.318       .  A
C2290      C2291   1.402       .  A
C2290      H2301   1.082       .  S
C2291      C2300   1.360       .  A
C2291      C2292   1.381       .  A
C2292      C2293   1.399       .  A
C2292      O2298   1.315       .  A
C2293      C2294   1.399       .  A
C2293      H2302   1.082       .  S
C2294      C2297   1.357       .  A
O2295      C2296   1.331       .  A
C2296      C2297   1.389       .  A
C2297      H2303   1.083       .  S
O2298      C2299   1.328       .  A
C2299      C2300   1.392       .  A
C2300      H2304   1.083       .  S
C2305      C2310   1.381       .  A
C2305      C2306   1.397       .  A
C2305      O2311   1.314       .  A
C2306      C2307   1.396       .  A
C2306      H2317   1.082       .  S
C2307      C2316   1.354       .  A
C2307      C2308   1.381       .  A
C2308      C2309   1.408       .  A
C2308      O2314   1.324       .  A
C2309      C2310   1.408       .  A
C2309      H2318   1.082       .  S
C2310      C2313   1.367       .  A
O2311      C2312   1.327       .  A
C2312      C2313   1.393       .  A
C2313      H2319   1.082       .  S
O2314      C2315   1.333       .  A
C2315      C2316   1.387       .  A
C2316      H2320   1.083       .  S
C2321      C2326   1.380       .  A
C2321      C2322   1.405       .  A
C2321      O2327   1.324       .  A
C2322      C2323   1.406       .  A
C2322      H2333   1.082       .  S
C2323      C2332   1.361       .  A
C2323      C2324   1.380       .  A
C2324      C2325   1.404       .  A
C2324      O2330   1.323       .  A
C2325      C2326   1.405       .  A
C2325      H2334   1.082       .  S
C2326      C2329   1.360       .  A
O2327      C2328   1.333       .  A
C2328      C2329   1.394       .  A
C2329      H2335   1.083       .  S
O2330      C2331   1.332       .  A
C2331      C2332   1.395       .  A
C2332      H2336   1.083       .  S
C2337      C2342   1.381       .  A
C2337      C2338   1.400       .  A
C2337      O2343   1.314       .  A
C2338      C2339   1.399       .  A
C2338      H2349   1.082       .  S
C2339      C2348   1.359       .  A
C2339      C2340   1.381       .  A
C2340      C2341   1.403       .  A
C2340      O2346   1.318       .  A
C2341      C2342   1.402       .  A
C2341      H2350   1.082       .  S
C2342      C2345   1.363       .  A
O2343      C2344   1.329       .  A
C2344      C2345   1.390       .  A
C2345      H2351   1.082       .  S
O2346      C2347   1.331       .  A
C2347      C2348   1.389       .  A
C2348      H2352   1.083       .  S
C2353      C2358   1.381       .  A
C2353      C2354   1.403       .  A
C2353      O2359   1.319       .  A
C2354      C2355   1.402       .  A
C2354      H2365   1.082       .  S
C2355      C2364   1.361       .  A
C2355      C2356   1.380       .  A
C2356      C2357   1.405       .  A
C2356      O2362   1.320       .  A
C2357      C2358   1.404       .  A
C2357      H2366   1.082       .  S
C2358      C2361   1.363       .  A
O2359      C2360   1.329       .  A
C2360      C2361   1.391       .  A
C2361      H2367   1.083       .  S
O2362      C2363   1.332       .  A
C2363      C2364   1.390       .  A
C2364      H2368   1.082       .  S
C2369      C2374   1.381       .  A
C2369      C2370   1.405       .  A
C2369      O2375   1.321       .  A
C2370      C2371   1.404       .  A
C2370      H2381   1.082       .  S
C2371      C2380   1.364       .  A
C2371      C2372   1.381       .  A
C2372      C2373   1.403       .  A
C2372      O2378   1.319       .  A
C2373      C2374   1.402       .  A
C2373      H2382   1.082       .  S
C2374      C2377   1.361       .  A
O2375      C2376   1.331       .  A
C2376      C2377   1.390       .  A
C2377      H2383   1.083       .  S
O2378      C2379   1.331       .  A
C2379      C2380   1.391       .  A
C2380      H2384   1.082       .  S
C2385      C2390   1.380       .  A
C2385      C2386   1.406       .  A
C2385      O2391   1.321       .  A
C2386      C2387   1.406       .  A
C2386      H2397   1.082       .  S
C2387      C2396   1.366       .  A
C2387      C2388   1.380       .  A
C2388      C2389   1.405       .  A
C2388      O2394   1.320       .  A
C2389      C2390   1.404       .  A
C2389      H2398   1.082       .  S
C2390      C2393   1.364       .  A
O2391      C2392   1.332       .  A
C2392      C2393   1.392       .  A
C2393      H2399   1.083       .  S
O2394      C2395   1.332       .  A
C2395      C2396   1.393       .  A
C2396      H2400   1.083       .  S
C2401      C2406   1.381       .  A
C2401      C2402   1.404       .  A
C2401      O2407   1.317       .  A
C2402      C2403   1.402       .  A
C2402      H2413   1.082       .  S
C2403      C2412   1.365       .  A
C2403      C2404   1.381       .  A
C2404      C2405   1.403       .  A
C2404      O2410   1.316       .  A
C2405      C2406   1.401       .  A
C2405      H2414   1.082       .  S
C2406      C2409   1.365       .  A
O2407      C2408   1.330       .  A
C2408      C2409   1.389       .  A
C2409      H2415   1.083       .  S
O2410      C2411   1.330       .  A
C2411      C2412   1.389       .  A
C2412      H2416   1.083       .  S
C2417      C2422   1.380       .  A
C2417      C2418   1.405       .  A
C2417      O2423   1.317       .  A
C2418      C2419   1.402       .  A
C2418      H2429   1.082       .  S
C2419      C2428   1.366       .  A
C2419      C2420   1.379       .  A
C2420      C2421   1.408       .  A
C2420      O2426   1.319       .  A
C2421      C2422   1.406       .  A
C2421      H2430   1.082   1_455  S
C2422      C2425   1.370   1_455  A
O2423      C2424   1.332       .  A
C2424      C2425   1.394   1_455  A
C2425      H2431   1.082       .  S
O2426      C2427   1.334       .  A
C2427      C2428   1.391       .  A
C2428      H2432   1.082       .  S
C2433      C2438   1.381       .  A
C2433      C2434   1.400       .  A
C2433      O2439   1.314       .  A
C2434      C2435   1.399       .  A
C2434      H2445   1.082       .  S
C2435      C2444   1.359       .  A
C2435      C2436   1.381       .  A
C2436      C2437   1.402       .  A
C2436      O2442   1.316       .  A
C2437      C2438   1.400       .  A
C2437      H2446   1.082       .  S
C2438      C2441   1.361       .  A
O2439      C2440   1.329       .  A
C2440      C2441   1.389       .  A
C2441      H2447   1.083       .  S
O2442      C2443   1.330       .  A
C2443      C2444   1.391       .  A
C2444      H2448   1.083       .  S
C2449      C2454   1.381       .  A
C2449      C2450   1.402       .  A
C2449      O2455   1.320       .  A
C2450      C2451   1.403       .  A
C2450      H2461   1.082       .  S
C2451      C2460   1.360       .  A
C2451      C2452   1.381       .  A
C2452      C2453   1.403       .  A
C2452      O2458   1.322       .  A
C2453      C2454   1.404       .  A
C2453      H2462   1.082       .  S
C2454      C2457   1.360       .  A
O2455      C2456   1.329       .  A
C2456      C2457   1.390       .  A
C2457      H2463   1.083       .  S
O2458      C2459   1.330       .  A
C2459      C2460   1.391       .  A
C2460      H2464   1.083       .  S
C2465      C2470   1.380       .  A
C2465      C2466   1.405       .  A
C2465      O2471   1.320       .  A
C2466      C2467   1.404       .  A
C2466      H2477   1.082       .  S
C2467      C2476   1.365       .  A
C2467      C2468   1.380       .  A
C2468      C2469   1.401       .  A
C2468      O2474   1.316       .  A
C2469      C2470   1.400       .  A
C2469      H2478   1.082       .  S
C2470      C2473   1.359       .  A
O2471      C2472   1.331       .  A
C2472      C2473   1.391       .  A
C2473      H2479   1.083       .  S
O2474      C2475   1.330       .  A
C2475      C2476   1.393       .  A
C2476      H2480   1.082       .  S
C2481      C2486   1.381       .  A
C2481      C2482   1.406       .  A
C2481      O2487   1.322       .  A
C2482      C2483   1.407       .  A
C2482      H2493   1.082       .  S
C2483      C2492   1.364       .  A
C2483      C2484   1.381       .  A
C2484      C2485   1.400       .  A
C2484      O2490   1.318       .  A
C2485      C2486   1.399       .  A
C2485      H2494   1.082       .  S
C2486      C2489   1.357       .  A
O2487      C2488   1.332       .  A
C2488      C2489   1.388       .  A
C2489      H2495   1.083       .  S
O2490      C2491   1.328       .  A
C2491      C2492   1.394       .  A
C2492      H2496   1.083       .  S
C2497      C2502   1.381       .  A
C2497      C2498   1.403       .  A
C2497      O2503   1.322       .  A
C2498      C2499   1.404       .  A
C2498      H2509   1.082       .  S
C2499      C2508   1.360       .  A
C2499      C2500   1.381       .  A
C2500      C2501   1.405       .  A
C2500      O2506   1.324       .  A
C2501      C2502   1.405       .  A
C2501      H2510   1.082       .  S
C2502      C2505   1.362       .  A
O2503      C2504   1.330       .  A
C2504      C2505   1.391       .  A
C2505      H2511   1.083       .  S
O2506      C2507   1.332       .  A
C2507      C2508   1.392       .  A
C2508      H2512   1.083       .  S
C2513      C2518   1.380       .  A
C2513      C2514   1.403       .  A
C2513      O2519   1.322       .  A
C2514      C2515   1.404       .  A
C2514      H2525   1.082       .  S
C2515      C2524   1.360       .  A
C2515      C2516   1.380       .  A
C2516      C2517   1.406       .  A
C2516      O2522   1.325       .  A
C2517      C2518   1.407       .  A
C2517      H2526   1.082       .  S
C2518      C2521   1.362       .  A
O2519      C2520   1.331       .  A
C2520      C2521   1.395       .  A
C2521      H2527   1.083       .  S
O2522      C2523   1.333       .  A
C2523      C2524   1.394       .  A
C2524      H2528   1.083       .  S
C2529      C2534   1.381       .  A
C2529      C2530   1.405       .  A
C2529      O2535   1.321       .  A
C2530      C2531   1.404       .  A
C2530      H2541   1.082       .  S
C2531      C2540   1.362       .  A
C2531      C2532   1.380       .  A
C2532      C2533   1.401       .  A
C2532      O2538   1.318       .  A
C2533      C2534   1.401       .  A
C2533      H2542   1.082       .  S
C2534      C2537   1.358       .  A
O2535      C2536   1.332       .  A
C2536      C2537   1.391       .  A
C2537      H2543   1.083       .  S
O2538      C2539   1.330       .  A
C2539      C2540   1.392       .  A
C2540      H2544   1.083       .  S
C2545      C2550   1.381       .  A
C2545      C2546   1.404       .  A
C2545      O2551   1.321       .  A
C2546      C2547   1.403       .  A
C2546      H2557   1.082       .  S
C2547      C2556   1.362       .  A
C2547      C2548   1.381       .  A
C2548      C2549   1.404       .  A
C2548      O2554   1.320       .  A
C2549      C2550   1.404       .  A
C2549      H2558   1.082       .  S
C2550      C2553   1.362       .  A
O2551      C2552   1.331       .  A
C2552      C2553   1.392       .  A
C2553      H2559   1.083       .  S
O2554      C2555   1.331       .  A
C2555      C2556   1.391       .  A
C2556      H2560   1.083       .  S
C2561      C2566   1.381       .  A
C2561      C2562   1.403       .  A
C2561      O2567   1.321       .  A
C2562      C2563   1.404       .  A
C2562      H2573   1.082       .  S
C2563      C2572   1.359       .  A
C2563      C2564   1.381       .  A
C2564      C2565   1.404       .  A
C2564      O2570   1.323       .  A
C2565      C2566   1.405       .  A
C2565      H2574   1.082       .  S
C2566      C2569   1.360       .  A
O2567      C2568   1.330       .  A
C2568      C2569   1.391       .  A
C2569      H2575   1.083       .  S
O2570      C2571   1.330       .  A
C2571      C2572   1.391       .  A
C2572      H2576   1.083       .  S
C2577      C2582   1.381       .  A
C2577      C2578   1.403       .  A
C2577      O2583   1.318   1_655  A
C2578      C2579   1.402       .  A
C2578      H2589   1.082       .  S
C2579      C2588   1.362       .  A
C2579      C2580   1.381       .  A
C2580      C2581   1.399       .  A
C2580      O2586   1.315       .  A
C2581      C2582   1.398       .  A
C2581      H2590   1.082       .  S
C2582      C2585   1.357   1_655  A
O2583      C2584   1.331       .  A
C2584      C2585   1.388       .  A
C2585      H2591   1.083       .  S
O2586      C2587   1.329       .  A
C2587      C2588   1.391       .  A
C2588      H2592   1.082       .  S
C2593      C2598   1.380       .  A
C2593      C2594   1.407       .  A
C2593      O2599   1.321       .  A
C2594      C2595   1.406       .  A
C2594      H2605   1.082       .  S
C2595      C2604   1.366       .  A
C2595      C2596   1.381       .  A
C2596      C2597   1.400       .  A
C2596      O2602   1.317       .  A
C2597      C2598   1.399       .  A
C2597      H2606   1.082       .  S
C2598      C2601   1.359       .  A
O2599      C2600   1.333       .  A
C2600      C2601   1.389       .  A
C2601      H2607   1.083       .  S
O2602      C2603   1.328       .  A
C2603      C2604   1.393       .  A
C2604      H2608   1.083       .  S
C2609      C2614   1.380       .  A
C2609      C2610   1.406       .  A
C2609      O2615   1.322       .  A
C2610      C2611   1.406       .  A
C2610      H2621   1.082       .  S
C2611      C2620   1.365       .  A
C2611      C2612   1.380       .  A
C2612      C2613   1.405       .  A
C2612      O2618   1.321       .  A
C2613      C2614   1.404       .  A
C2613      H2622   1.082       .  S
C2614      C2617   1.363       .  A
O2615      C2616   1.332       .  A
C2616      C2617   1.392       .  A
C2617      H2623   1.083       .  S
O2618      C2619   1.331       .  A
C2619      C2620   1.393       .  A
C2620      H2624   1.082       .  S
C2625      C2630   1.381       .  A
C2625      C2626   1.405       .  A
C2625      O2631   1.324       .  A
C2626      C2627   1.405       .  A
C2626      H2637   1.082       .  S
C2627      C2636   1.360       .  A
C2627      C2628   1.381       .  A
C2628      C2629   1.404       .  A
C2628      O2634   1.323       .  A
C2629      C2630   1.405       .  A
C2629      H2638   1.082       .  S
C2630      C2633   1.362       .  A
O2631      C2632   1.332       .  A
C2632      C2633   1.392       .  A
C2633      H2639   1.082       .  S
O2634      C2635   1.331       .  A
C2635      C2636   1.392       .  A
C2636      H2640   1.083       .  S
C2641      C2646   1.381       .  A
C2641      C2642   1.403   1_556  A
C2641      O2647   1.323       .  A
C2642      C2643   1.404       .  A
C2642      H2653   1.082       .  S
C2643      C2652   1.358       .  A
C2643      C2644   1.381       .  A
C2644      C2645   1.401       .  A
C2644      O2650   1.321       .  A
C2645      C2646   1.403   1_554  A
C2645      H2654   1.082       .  S
C2646      C2649   1.357       .  A
O2647      C2648   1.332       .  A
C2648      C2649   1.393       .  A
C2649      H2655   1.083       .  S
O2650      C2651   1.330       .  A
C2651      C2652   1.393       .  A
C2652      H2656   1.083       .  S
C2657      C2662   1.381       .  A
C2657      C2658   1.404       .  A
C2657      O2663   1.319       .  A
C2658      C2659   1.404       .  A
C2658      H2669   1.082       .  S
C2659      C2668   1.362       .  A
C2659      C2660   1.381       .  A
C2660      C2661   1.399       .  A
C2660      O2666   1.316       .  A
C2661      C2662   1.399       .  A
C2661      H2670   1.082       .  S
C2662      C2665   1.357       .  A
O2663      C2664   1.331       .  A
C2664      C2665   1.389       .  A
C2665      H2671   1.083       .  S
O2666      C2667   1.329       .  A
C2667      C2668   1.392       .  A
C2668      H2672   1.082       .  S
C2673      C2678   1.380       .  A
C2673      C2674   1.404       .  A
C2673      O2679   1.317       .  A
C2674      C2675   1.402       .  A
C2674      H2685   1.082       .  S
C2675      C2684   1.365       .  A
C2675      C2676   1.380       .  A
C2676      C2677   1.404       .  A
C2676      O2682   1.316       .  A
C2677      C2678   1.402       .  A
C2677      H2686   1.082       .  S
C2678      C2681   1.364       .  A
O2679      C2680   1.330       .  A
C2680      C2681   1.390       .  A
C2681      H2687   1.083       .  S
O2682      C2683   1.330       .  A
C2683      C2684   1.390       .  A
C2684      H2688   1.083       .  S
C2689      C2694   1.380   1_565  A
C2689      C2690   1.405       .  A
C2689      O2695   1.316       .  A
C2690      C2691   1.402       .  A
C2690      H2701   1.082       .  S
C2691      C2700   1.366       .  A
C2691      C2692   1.380   1_565  A
C2692      C2693   1.404       .  A
C2692      O2698   1.316       .  A
C2693      C2694   1.402       .  A
C2693      H2702   1.082       .  S
C2694      C2697   1.366       .  A
O2695      C2696   1.332   1_565  A
C2696      C2697   1.391       .  A
C2697      H2703   1.082       .  S
O2698      C2699   1.332       .  A
C2699      C2700   1.391   1_545  A
C2700      H2704   1.082       .  S
C2705      C2710   1.381   1_545  A
C2705      C2706   1.406       .  A
C2705      O2711   1.319       .  A
C2706      C2707   1.405       .  A
C2706      H2717   1.082       .  S
C2707      C2716   1.365       .  A
C2707      C2708   1.381   1_545  A
C2708      C2709   1.398       .  A
C2708      O2714   1.313       .  A
C2709      C2710   1.397       .  A
C2709      H2718   1.082       .  S
C2710      C2713   1.356       .  A
O2711      C2712   1.332       .  A
C2712      C2713   1.388   1_545  A
C2713      H2719   1.083       .  S
O2714      C2715   1.328   1_565  A
C2715      C2716   1.392       .  A
C2716      H2720   1.082       .  S
C2721      C2726   1.380       .  A
C2721      C2722   1.406       .  A
C2721      O2727   1.322       .  A
C2722      C2723   1.405       .  A
C2722      H2733   1.082       .  S
C2723      C2732   1.364       .  A
C2723      C2724   1.380       .  A
C2724      C2725   1.404       .  A
C2724      O2730   1.320       .  A
C2725      C2726   1.404       .  A
C2725      H2734   1.082       .  S
C2726      C2729   1.363       .  A
O2727      C2728   1.332       .  A
C2728      C2729   1.392       .  A
C2729      H2735   1.083       .  S
O2730      C2731   1.331       .  A
C2731      C2732   1.393       .  A
C2732      H2736   1.083       .  S
C2737      C2742   1.381       .  A
C2737      C2738   1.402       .  A
C2737      O2743   1.319       .  A
C2738      C2739   1.402       .  A
C2738      H2749   1.082       .  S
C2739      C2748   1.360       .  A
C2739      C2740   1.381       .  A
C2740      C2741   1.403       .  A
C2740      O2746   1.320       .  A
C2741      C2742   1.403       .  A
C2741      H2750   1.082       .  S
C2742      C2745   1.361       .  A
O2743      C2744   1.329       .  A
C2744      C2745   1.390       .  A
C2745      H2751   1.083       .  S
O2746      C2747   1.330       .  A
C2747      C2748   1.390       .  A
C2748      H2752   1.083       .  S
C2753      C2758   1.380       .  A
C2753      C2754   1.404       .  A
C2753      O2759   1.318       .  A
C2754      C2755   1.403       .  A
C2754      H2765   1.082       .  S
C2755      C2764   1.364       .  A
C2755      C2756   1.380       .  A
C2756      C2757   1.404       .  A
C2756      O2762   1.318       .  A
C2757      C2758   1.403       .  A
C2757      H2766   1.082       .  S
C2758      C2761   1.363       .  A
O2759      C2760   1.331       .  A
C2760      C2761   1.393       .  A
C2761      H2767   1.083       .  S
O2762      C2763   1.331       .  A
C2763      C2764   1.391       .  A
C2764      H2768   1.083       .  S
C2769      C2774   1.381       .  A
C2769      C2770   1.403       .  A
C2769      O2775   1.319       .  A
C2770      C2771   1.402       .  A
C2770      H2781   1.082       .  S
C2771      C2780   1.360       .  A
C2771      C2772   1.381       .  A
C2772      C2773   1.401       .  A
C2772      O2778   1.318       .  A
C2773      C2774   1.401       .  A
C2773      H2782   1.082       .  S
C2774      C2777   1.359       .  A
O2775      C2776   1.330       .  A
C2776      C2777   1.390       .  A
C2777      H2783   1.083       .  S
O2778      C2779   1.329       .  A
C2779      C2780   1.390       .  A
C2780      H2784   1.083       .  S
C2785      C2790   1.380       .  A
C2785      C2786   1.405       .  A
C2785      O2791   1.319       .  A
C2786      C2787   1.404       .  A
C2786      H2797   1.082       .  S
C2787      C2796   1.366       .  A
C2787      C2788   1.380       .  A
C2788      C2789   1.407       .  A
C2788      O2794   1.320       .  A
C2789      C2790   1.405       .  A
C2789      H2798   1.082       .  S
C2790      C2793   1.367       .  A
O2791      C2792   1.331       .  A
C2792      C2793   1.392       .  A
C2793      H2799   1.083       .  S
O2794      C2795   1.332       .  A
C2795      C2796   1.391       .  A
C2796      H2800   1.083       .  S
C2801      C2806   1.380   1_565  A
C2801      C2802   1.405       .  A
C2801      O2807   1.322       .  A
C2802      C2803   1.405       .  A
C2802      H2813   1.082       .  S
C2803      C2812   1.362       .  A
C2803      C2804   1.381   1_565  A
C2804      C2805   1.402       .  A
C2804      O2810   1.320       .  A
C2805      C2806   1.402       .  A
C2805      H2814   1.082       .  S
C2806      C2809   1.359       .  A
O2807      C2808   1.332   1_565  A
C2808      C2809   1.391       .  A
C2809      H2815   1.083       .  S
O2810      C2811   1.331       .  A
C2811      C2812   1.393   1_545  A
C2812      H2816   1.083       .  S
C2817      C2822   1.381       .  A
C2817      C2818   1.402       .  A
C2817      O2823   1.318       .  A
C2818      C2819   1.402       .  A
C2818      H2829   1.082       .  S
C2819      C2828   1.360       .  A
C2819      C2820   1.381       .  A
C2820      C2821   1.402       .  A
C2820      O2826   1.319       .  A
C2821      C2822   1.401       .  A
C2821      H2830   1.082       .  S
C2822      C2825   1.359       .  A
O2823      C2824   1.330       .  A
C2824      C2825   1.389       .  A
C2825      H2831   1.082       .  S
O2826      C2827   1.330       .  A
C2827      C2828   1.390       .  A
C2828      H2832   1.083       .  S
C2833      C2838   1.381       .  A
C2833      C2834   1.403       .  A
C2833      O2839   1.318       .  A
C2834      C2835   1.402       .  A
C2834      H2845   1.082       .  S
C2835      C2844   1.362       .  A
C2835      C2836   1.381       .  A
C2836      C2837   1.403       .  A
C2836      O2842   1.318       .  A
C2837      C2838   1.402       .  A
C2837      H2846   1.082       .  S
C2838      C2841   1.361       .  A
O2839      C2840   1.330       .  A
C2840      C2841   1.390       .  A
C2841      H2847   1.083       .  S
O2842      C2843   1.330       .  A
C2843      C2844   1.392       .  A
C2844      H2848   1.083       .  S
C2849      C2854   1.380   1_545  A
C2849      C2850   1.405       .  A
C2849      O2855   1.317       .  A
C2850      C2851   1.402       .  A
C2850      H2861   1.082       .  S
C2851      C2860   1.366       .  A
C2851      C2852   1.380   1_545  A
C2852      C2853   1.406       .  A
C2852      O2858   1.317       .  A
C2853      C2854   1.403       .  A
C2853      H2862   1.082       .  S
C2854      C2857   1.367       .  A
O2855      C2856   1.332       .  A
C2856      C2857   1.393   1_545  A
C2857      H2863   1.082       .  S
O2858      C2859   1.332   1_565  A
C2859      C2860   1.392       .  A
C2860      H2864   1.082       .  S
C2865      C2870   1.380       .  A
C2865      C2866   1.405   1_545  A
C2865      O2871   1.320   1_545  A
C2866      C2867   1.404   1_565  A
C2866      H2877   1.082       .  S
C2867      C2876   1.363   1_545  A
C2867      C2868   1.381       .  A
C2868      C2869   1.401       .  A
C2868      O2874   1.318       .  A
C2869      C2870   1.401       .  A
C2869      H2878   1.082       .  S
C2870      C2873   1.358       .  A
O2871      C2872   1.331   1_565  A
C2872      C2873   1.390       .  A
C2873      H2879   1.083       .  S
O2874      C2875   1.330       .  A
C2875      C2876   1.393   1_545  A
C2876      H2880   1.083       .  S
C2881      C2886   1.381   1_545  A
C2881      C2882   1.404       .  A
C2881      O2887   1.319       .  A
C2882      C2883   1.402       .  A
C2882      H2893   1.082       .  S
C2883      C2892   1.362       .  A
C2883      C2884   1.381   1_545  A
C2884      C2885   1.398       .  A
C2884      O2890   1.314       .  A
C2885      C2886   1.398       .  A
C2885      H2894   1.082       .  S
C2886      C2889   1.356       .  A
O2887      C2888   1.331       .  A
C2888      C2889   1.389   1_545  A
C2889      H2895   1.083       .  S
O2890      C2891   1.328   1_565  A
C2891      C2892   1.390       .  A
C2892      H2896   1.083       .  S
C2897      C2902   1.381       .  A
C2897      C2898   1.401       .  A
C2897      O2903   1.320       .  A
C2898      C2899   1.402       .  A
C2898      H2909   1.082       .  S
C2899      C2908   1.357       .  A
C2899      C2900   1.381       .  A
C2900      C2901   1.402       .  A
C2900      O2906   1.322       .  A
C2901      C2902   1.403       .  A
C2901      H2910   1.082       .  S
C2902      C2905   1.358       .  A
O2903      C2904   1.330       .  A
C2904      C2905   1.393       .  A
C2905      H2911   1.083       .  S
O2906      C2907   1.331       .  A
C2907      C2908   1.393       .  A
C2908      H2912   1.083       .  S
C2913      C2918   1.381       .  A
C2913      C2914   1.401       .  A
C2913      O2919   1.316       .  A
C2914      C2915   1.400       .  A
C2914      H2925   1.082       .  S
C2915      C2924   1.359       .  A
C2915      C2916   1.381       .  A
C2916      C2917   1.402       .  A
C2916      O2922   1.317       .  A
C2917      C2918   1.401       .  A
C2917      H2926   1.082       .  S
C2918      C2921   1.360       .  A
O2919      C2920   1.330       .  A
C2920      C2921   1.391       .  A
C2921      H2927   1.083       .  S
O2922      C2923   1.329       .  A
C2923      C2924   1.390       .  A
C2924      H2928   1.083       .  S
C2929      C2934   1.381       .  A
C2929      C2930   1.402       .  A
C2929      O2935   1.319       .  A
C2930      C2931   1.402       .  A
C2930      H2941   1.082       .  S
C2931      C2940   1.360       .  A
C2931      C2932   1.381       .  A
C2932      C2933   1.404       .  A
C2932      O2938   1.320       .  A
C2933      C2934   1.404       .  A
C2933      H2942   1.082       .  S
C2934      C2937   1.362       .  A
O2935      C2936   1.330       .  A
C2936      C2937   1.392       .  A
C2937      H2943   1.083       .  S
O2938      C2939   1.331       .  A
C2939      C2940   1.390       .  A
C2940      H2944   1.083       .  S
C2945      C2950   1.380   1_545  A
C2945      C2946   1.403       .  A
C2945      O2951   1.316       .  A
C2946      C2947   1.401       .  A
C2946      H2957   1.082       .  S
C2947      C2956   1.364       .  A
C2947      C2948   1.380   1_545  A
C2948      C2949   1.406       .  A
C2948      O2954   1.318       .  A
C2949      C2950   1.404       .  A
C2949      H2958   1.082       .  S
C2950      C2953   1.366       .  A
O2951      C2952   1.331       .  A
C2952      C2953   1.392   1_545  A
C2953      H2959   1.082       .  S
O2954      C2955   1.333   1_565  A
C2955      C2956   1.390       .  A
C2956      H2960   1.082       .  S
C2961      C2966   1.381   1_565  A
C2961      C2962   1.400       .  A
C2961      O2967   1.316       .  A
C2962      C2963   1.400       .  A
C2962      H2973   1.082       .  S
C2963      C2972   1.357       .  A
C2963      C2964   1.381   1_565  A
C2964      C2965   1.404       .  A
C2964      O2970   1.320       .  A
C2965      C2966   1.404       .  A
C2965      H2974   1.082       .  S
C2966      C2969   1.363       .  A
O2967      C2968   1.329   1_565  A
C2968      C2969   1.392       .  A
C2969      H2975   1.082       .  S
O2970      C2971   1.331       .  A
C2971      C2972   1.390   1_545  A
C2972      H2976   1.083       .  S
C2977      C2982   1.381       .  A
C2977      C2978   1.401       .  A
C2977      O2983   1.314       .  A
C2978      C2979   1.398       .  A
C2978      H2989   1.082       .  S
C2979      C2988   1.359       .  A
C2979      C2980   1.381       .  A
C2980      C2981   1.399   1_545  A
C2980      O2986   1.313       .  A
C2981      C2982   1.398   1_565  A
C2981      H2990   1.082       .  S
C2982      C2985   1.359   1_545  A
O2983      C2984   1.329       .  A
C2984      C2985   1.388   1_545  A
C2985      H2991   1.083       .  S
O2986      C2987   1.328       .  A
C2987      C2988   1.390       .  A
C2988      H2992   1.083       .  S
C2993      C2998   1.380       .  A
C2993      C2994   1.406       .  A
C2993      O2999   1.321       .  A
C2994      C2995   1.406       .  A
C2994      H3005   1.082       .  S
C2995      C3004   1.365       .  A
C2995      C2996   1.381       .  A
C2996      C2997   1.402   1_565  A
C2996      O3002   1.318   1_565  A
C2997      C2998   1.401   1_545  A
C2997      H3006   1.082       .  S
C2998      C3001   1.360   1_565  A
O2999      C3000   1.332       .  A
C3000      C3001   1.390   1_565  A
C3001      H3007   1.083       .  S
O3002      C3003   1.329   1_545  A
C3003      C3004   1.392       .  A
C3004      H3008   1.082       .  S
C3009      C3014   1.381       .  A
C3009      C3010   1.399       .  A
C3009      O3015   1.315       .  A
C3010      C3011   1.398       .  A
C3010      H3021   1.082       .  S
C3011      C3020   1.356       .  A
C3011      C3012   1.381       .  A
C3012      C3013   1.402       .  A
C3012      O3018   1.318       .  A
C3013      C3014   1.402       .  A
C3013      H3022   1.082       .  S
C3014      C3017   1.361       .  A
O3015      C3016   1.328       .  A
C3016      C3017   1.390       .  A
C3017      H3023   1.083       .  S
O3018      C3019   1.330       .  A
C3019      C3020   1.390       .  A
C3020      H3024   1.083       .  S
C3025      C3030   1.381       .  A
C3025      C3026   1.403       .  A
C3025      O3031   1.320       .  A
C3026      C3027   1.403       .  A
C3026      H3037   1.082       .  S
C3027      C3036   1.361       .  A
C3027      C3028   1.381       .  A
C3028      C3029   1.405       .  A
C3028      O3034   1.321       .  A
C3029      C3030   1.404       .  A
C3029      H3038   1.082       .  S
C3030      C3033   1.362       .  A
O3031      C3032   1.330       .  A
C3032      C3033   1.392       .  A
C3033      H3039   1.083       .  S
O3034      C3035   1.331       .  A
C3035      C3036   1.390       .  A
C3036      H3040   1.082       .  S
C3041      C3046   1.381       .  A
C3041      C3042   1.404       .  A
C3041      O3047   1.321       .  A
C3042      C3043   1.403       .  A
C3042      H3053   1.082       .  S
C3043      C3052   1.360       .  A
C3043      C3044   1.381       .  A
C3044      C3045   1.401       .  A
C3044      O3050   1.318       .  A
C3045      C3046   1.402       .  A
C3045      H3054   1.082       .  S
C3046      C3049   1.360       .  A
O3047      C3048   1.332       .  A
C3048      C3049   1.391       .  A
C3049      H3055   1.083       .  S
O3050      C3051   1.329       .  A
C3051      C3052   1.390       .  A
C3052      H3056   1.083       .  S
C3057      C3062   1.381       .  A
C3057      C3058   1.403       .  A
C3057      O3063   1.317       .  A
C3058      C3059   1.401       .  A
C3058      H3069   1.082       .  S
C3059      C3068   1.362       .  A
C3059      C3060   1.381       .  A
C3060      C3061   1.402       .  A
C3060      O3066   1.317       .  A
C3061      C3062   1.401       .  A
C3061      H3070   1.082       .  S
C3062      C3065   1.362       .  A
O3063      C3064   1.331       .  A
C3064      C3065   1.388       .  A
C3065      H3071   1.083       .  S
O3066      C3067   1.329       .  A
C3067      C3068   1.388       .  A
C3068      H3072   1.083       .  S
C3073      C3078   1.379   1_556  A
C3073      C3074   1.405   1_556  A
C3073      O3079   1.318       .  A
C3074      C3075   1.403       .  A
C3074      H3085   1.082   1_554  S
C3075      C3084   1.367       .  A
C3075      C3076   1.379       .  A
C3076      C3077   1.408       .  A
C3076      O3082   1.320       .  A
C3077      C3078   1.405       .  A
C3077      H3086   1.082       .  S
C3078      C3081   1.369   1_554  A
O3079      C3080   1.332       .  A
C3080      C3081   1.394       .  A
C3081      H3087   1.082       .  S
O3082      C3083   1.334       .  A
C3083      C3084   1.392       .  A
C3084      H3088   1.082       .  S
C3089      C3094   1.381       .  A
C3089      C3090   1.402       .  A
C3089      O3095   1.319       .  A
C3090      C3091   1.402       .  A
C3090      H3101   1.082       .  S
C3091      C3100   1.359       .  A
C3091      C3092   1.381       .  A
C3092      C3093   1.402       .  A
C3092      O3098   1.319       .  A
C3093      C3094   1.402       .  A
C3093      H3102   1.082       .  S
C3094      C3097   1.359       .  A
O3095      C3096   1.330       .  A
C3096      C3097   1.391       .  A
C3097      H3103   1.083       .  S
O3098      C3099   1.330       .  A
C3099      C3100   1.392       .  A
C3100      H3104   1.083       .  S
C3105      C3110   1.381       .  A
C3105      C3106   1.400       .  A
C3105      O3111   1.315       .  A
C3106      C3107   1.398       .  A
C3106      H3117   1.082       .  S
C3107      C3116   1.358       .  A
C3107      C3108   1.380       .  A
C3108      C3109   1.405       .  A
C3108      O3114   1.319       .  A
C3109      C3110   1.404       .  A
C3109      H3118   1.082       .  S
C3110      C3113   1.364       .  A
O3111      C3112   1.329       .  A
C3112      C3113   1.392       .  A
C3113      H3119   1.083       .  S
O3114      C3115   1.332       .  A
C3115      C3116   1.389       .  A
C3116      H3120   1.083       .  S
C3121      C3126   1.381       .  A
C3121      C3122   1.406       .  A
C3121      O3127   1.324       .  A
C3122      C3123   1.406       .  A
C3122      H3133   1.082       .  S
C3123      C3132   1.363       .  A
C3123      C3124   1.381       .  A
C3124      C3125   1.404       .  A
C3124      O3130   1.322       .  A
C3125      C3126   1.404       .  A
C3125      H3134   1.082       .  S
C3126      C3129   1.361       .  A
O3127      C3128   1.332       .  A
C3128      C3129   1.392       .  A
C3129      H3135   1.083   1_554  S
O3130      C3131   1.330       .  A
C3131      C3132   1.392       .  A
C3132      H3136   1.083       .  S
C3137      C3142   1.381       .  A
C3137      C3138   1.401       .  A
C3137      O3143   1.318       .  A
C3138      C3139   1.400       .  A
C3138      H3149   1.082       .  S
C3139      C3148   1.357       .  A
C3139      C3140   1.381       .  A
C3140      C3141   1.401       .  A
C3140      O3146   1.318       .  A
C3141      C3142   1.401       .  A
C3141      H3150   1.082       .  S
C3142      C3145   1.358       .  A
O3143      C3144   1.329       .  A
C3144      C3145   1.392       .  A
C3145      H3151   1.083       .  S
O3146      C3147   1.330       .  A
C3147      C3148   1.390       .  A
C3148      H3152   1.083       .  S
C3153      C3158   1.380       .  A
C3153      C3154   1.406       .  A
C3153      O3159   1.322       .  A
C3154      C3155   1.406       .  A
C3154      H3165   1.082       .  S
C3155      C3164   1.364       .  A
C3155      C3156   1.380       .  A
C3156      C3157   1.404       .  A
C3156      O3162   1.321       .  A
C3157      C3158   1.404       .  A
C3157      H3166   1.082       .  S
C3158      C3161   1.363       .  A
O3159      C3160   1.332       .  A
C3160      C3161   1.392       .  A
C3161      H3167   1.083       .  S
O3162      C3163   1.331       .  A
C3163      C3164   1.394       .  A
C3164      H3168   1.083       .  S
C3169      C3174   1.381       .  A
C3169      C3170   1.404       .  A
C3169      O3175   1.321       .  A
C3170      C3171   1.404       .  A
C3170      H3181   1.082       .  S
C3171      C3180   1.361       .  A
C3171      C3172   1.381       .  A
C3172      C3173   1.402       .  A
C3172      O3178   1.320       .  A
C3173      C3174   1.402       .  A
C3173      H3182   1.082       .  S
C3174      C3177   1.358       .  A
O3175      C3176   1.331       .  A
C3176      C3177   1.390       .  A
C3177      H3183   1.083       .  S
O3178      C3179   1.329       .  A
C3179      C3180   1.391       .  A
C3180      H3184   1.083       .  S
C3185      C3190   1.380       .  A
C3185      C3186   1.404       .  A
C3185      O3191   1.316       .  A
C3186      C3187   1.403       .  A
C3186      H3197   1.082       .  S
C3187      C3196   1.366       .  A
C3187      C3188   1.380       .  A
C3188      C3189   1.405       .  A
C3188      O3194   1.317       .  A
C3189      C3190   1.402       .  A
C3189      H3198   1.082   1_455  S
C3190      C3193   1.365   1_455  A
O3191      C3192   1.331       .  A
C3192      C3193   1.391   1_455  A
C3193      H3199   1.082       .  S
O3194      C3195   1.332       .  A
C3195      C3196   1.393       .  A
C3196      H3200   1.082       .  S
C3201      C3206   1.381       .  A
C3201      C3202   1.400       .  A
C3201      O3207   1.314   1_655  A
C3202      C3203   1.399       .  A
C3202      H3213   1.082       .  S
C3203      C3212   1.358       .  A
C3203      C3204   1.381       .  A
C3204      C3205   1.402       .  A
C3204      O3210   1.317       .  A
C3205      C3206   1.401       .  A
C3205      H3214   1.082       .  S
C3206      C3209   1.362   1_655  A
O3207      C3208   1.330       .  A
C3208      C3209   1.390       .  A
C3209      H3215   1.082       .  S
O3210      C3211   1.329       .  A
C3211      C3212   1.390       .  A
C3212      H3216   1.083       .  S
C3217      C3222   1.380       .  A
C3217      C3218   1.404       .  A
C3217      O3223   1.319       .  A
C3218      C3219   1.403       .  A
C3218      H3229   1.082       .  S
C3219      C3228   1.363       .  A
C3219      C3220   1.380       .  A
C3220      C3221   1.406       .  A
C3220      O3226   1.321       .  A
C3221      C3222   1.405       .  A
C3221      H3230   1.082       .  S
C3222      C3225   1.365       .  A
O3223      C3224   1.331       .  A
C3224      C3225   1.392       .  A
C3225      H3231   1.083       .  S
O3226      C3227   1.332       .  A
C3227      C3228   1.393       .  A
C3228      H3232   1.083       .  S
C3233      C3238   1.381       .  A
C3233      C3234   1.404       .  A
C3233      O3239   1.320       .  A
C3234      C3235   1.404       .  A
C3234      H3245   1.082       .  S
C3235      C3244   1.362       .  A
C3235      C3236   1.381       .  A
C3236      C3237   1.404       .  A
C3236      O3242   1.320       .  A
C3237      C3238   1.403       .  A
C3237      H3246   1.082       .  S
C3238      C3241   1.363       .  A
O3239      C3240   1.331       .  A
C3240      C3241   1.391       .  A
C3241      H3247   1.082       .  S
O3242      C3243   1.331       .  A
C3243      C3244   1.392       .  A
C3244      H3248   1.083       .  S
C3249      C3254   1.381       .  A
C3249      C3250   1.404       .  A
C3249      O3255   1.323       .  A
C3250      C3251   1.405       .  A
C3250      H3261   1.082       .  S
C3251      C3260   1.362       .  A
C3251      C3252   1.380       .  A
C3252      C3253   1.406       .  A
C3252      O3258   1.324       .  A
C3253      C3254   1.407       .  A
C3253      H3262   1.082       .  S
C3254      C3257   1.364       .  A
O3255      C3256   1.331       .  A
C3256      C3257   1.393       .  A
C3257      H3263   1.083       .  S
O3258      C3259   1.332       .  A
C3259      C3260   1.392       .  A
C3260      H3264   1.083       .  S
C3265      C3270   1.380       .  A
C3265      C3266   1.403       .  A
C3265      O3271   1.314       .  A
C3266      C3267   1.400       .  A
C3266      H3277   1.082       .  S
C3267      C3276   1.363   1_455  A
C3267      C3268   1.380       .  A
C3268      C3269   1.403       .  A
C3268      O3274   1.316       .  A
C3269      C3270   1.401       .  A
C3269      H3278   1.082       .  S
C3270      C3273   1.364       .  A
O3271      C3272   1.331       .  A
C3272      C3273   1.390       .  A
C3273      H3279   1.082       .  S
O3274      C3275   1.331       .  A
C3275      C3276   1.390   1_455  A
C3276      H3280   1.082       .  S
C3281      C3286   1.381       .  A
C3281      C3282   1.404       .  A
C3281      O3287   1.319   1_655  A
C3282      C3283   1.402       .  A
C3282      H3293   1.082       .  S
C3283      C3292   1.362       .  A
C3283      C3284   1.381       .  A
C3284      C3285   1.399       .  A
C3284      O3290   1.315       .  A
C3285      C3286   1.399       .  A
C3285      H3294   1.082       .  S
C3286      C3289   1.357   1_655  A
O3287      C3288   1.330       .  A
C3288      C3289   1.390       .  A
C3289      H3295   1.083       .  S
O3290      C3291   1.329       .  A
C3291      C3292   1.391       .  A
C3292      H3296   1.083       .  S
C3297      C3302   1.381       .  A
C3297      C3298   1.402       .  A
C3297      O3303   1.318       .  A
C3298      C3299   1.402       .  A
C3298      H3309   1.082       .  S
C3299      C3308   1.361       .  A
C3299      C3300   1.381       .  A
C3300      C3301   1.405       .  A
C3300      O3306   1.320       .  A
C3301      C3302   1.403       .  A
C3301      H3310   1.082       .  S
C3302      C3305   1.362       .  A
O3303      C3304   1.329       .  A
C3304      C3305   1.391       .  A
C3305      H3311   1.083       .  S
O3306      C3307   1.331       .  A
C3307      C3308   1.391       .  A
C3308      H3312   1.083       .  S
C3313      C3318   1.380       .  A
C3313      C3314   1.405       .  A
C3313      O3319   1.321       .  A
C3314      C3315   1.405       .  A
C3314      H3325   1.082       .  S
C3315      C3324   1.363       .  A
C3315      C3316   1.381       .  A
C3316      C3317   1.403       .  A
C3316      O3322   1.320       .  A
C3317      C3318   1.402       .  A
C3317      H3326   1.082       .  S
C3318      C3321   1.361       .  A
O3319      C3320   1.332       .  A
C3320      C3321   1.390       .  A
C3321      H3327   1.082       .  S
O3322      C3323   1.330       .  A
C3323      C3324   1.392       .  A
C3324      H3328   1.083       .  S
C3329      C3334   1.381       .  A
C3329      C3330   1.405       .  A
C3329      O3335   1.323       .  A
C3330      C3331   1.406       .  A
C3330      H3341   1.082       .  S
C3331      C3340   1.361       .  A
C3331      C3332   1.381       .  A
C3332      C3333   1.404       .  A
C3332      O3338   1.323       .  A
C3333      C3334   1.404       .  A
C3333      H3342   1.082       .  S
C3334      C3337   1.360       .  A
O3335      C3336   1.331       .  A
C3336      C3337   1.391       .  A
C3337      H3343   1.083       .  S
O3338      C3339   1.331       .  A
C3339      C3340   1.392       .  A
C3340      H3344   1.083       .  S
C3345      C3350   1.380       .  A
C3345      C3346   1.405       .  A
C3345      O3351   1.324       .  A
C3346      C3347   1.406       .  A
C3346      H3357   1.082       .  S
C3347      C3356   1.361       .  A
C3347      C3348   1.380       .  A
C3348      C3349   1.403       .  A
C3348      O3354   1.323       .  A
C3349      C3350   1.405       .  A
C3349      H3358   1.082       .  S
C3350      C3353   1.358       .  A
O3351      C3352   1.332       .  A
C3352      C3353   1.394       .  A
C3353      H3359   1.083       .  S
O3354      C3355   1.331       .  A
C3355      C3356   1.395       .  A
C3356      H3360   1.083       .  S
C3361      C3366   1.380       .  A
C3361      C3362   1.403       .  A
C3361      O3367   1.317       .  A
C3362      C3363   1.402       .  A
C3362      H3373   1.082       .  S
C3363      C3372   1.362       .  A
C3363      C3364   1.380       .  A
C3364      C3365   1.403       .  A
C3364      O3370   1.317       .  A
C3365      C3366   1.401       .  A
C3365      H3374   1.082       .  S
C3366      C3369   1.362       .  A
O3367      C3368   1.330       .  A
C3368      C3369   1.391       .  A
C3369      H3375   1.083       .  S
O3370      C3371   1.331       .  A
C3371      C3372   1.391       .  A
C3372      H3376   1.083       .  S
C3377      C3382   1.381       .  A
C3377      C3378   1.401       .  A
C3377      O3383   1.316       .  A
C3378      C3379   1.400       .  A
C3378      H3389   1.082       .  S
C3379      C3388   1.359       .  A
C3379      C3380   1.380       .  A
C3380      C3381   1.405       .  A
C3380      O3386   1.321       .  A
C3381      C3382   1.404       .  A
C3381      H3390   1.082       .  S
C3382      C3385   1.364       .  A
O3383      C3384   1.329       .  A
C3384      C3385   1.392       .  A
C3385      H3391   1.083       .  S
O3386      C3387   1.332       .  A
C3387      C3388   1.391       .  A
C3388      H3392   1.083       .  S
C3393      C3398   1.381       .  A
C3393      C3394   1.406       .  A
C3393      O3399   1.322       .  A
C3394      C3395   1.406       .  A
C3394      H3405   1.082       .  S
C3395      C3404   1.363       .  A
C3395      C3396   1.381       .  A
C3396      C3397   1.400       .  A
C3396      O3402   1.319       .  A
C3397      C3398   1.401       .  A
C3397      H3406   1.082       .  S
C3398      C3401   1.358       .  A
O3399      C3400   1.332       .  A
C3400      C3401   1.389       .  A
C3401      H3407   1.083       .  S
O3402      C3403   1.328       .  A
C3403      C3404   1.393       .  A
C3404      H3408   1.083       .  S
C3409      C3414   1.381       .  A
C3409      C3410   1.401       .  A
C3409      O3415   1.320       .  A
C3410      C3411   1.402   1_554  A
C3410      H3421   1.082       .  S
C3411      C3420   1.356       .  A
C3411      C3412   1.381       .  A
C3412      C3413   1.402   1_556  A
C3412      O3418   1.321       .  A
C3413      C3414   1.403       .  A
C3413      H3422   1.082       .  S
C3414      C3417   1.357       .  A
O3415      C3416   1.330       .  A
C3416      C3417   1.393       .  A
C3417      H3423   1.083       .  S
O3418      C3419   1.330       .  A
C3419      C3420   1.392       .  A
C3420      H3424   1.083       .  S
C3425      C3430   1.381       .  A
C3425      C3426   1.400       .  A
C3425      O3431   1.318       .  A
C3426      C3427   1.400       .  A
C3426      H3437   1.082       .  S
C3427      C3436   1.355       .  A
C3427      C3428   1.381       .  A
C3428      C3429   1.404       .  A
C3428      O3434   1.322       .  A
C3429      C3430   1.405       .  A
C3429      H3438   1.082       .  S
C3430      C3433   1.361       .  A
O3431      C3432   1.329       .  A
C3432      C3433   1.393       .  A
C3433      H3439   1.083       .  S
O3434      C3435   1.332       .  A
C3435      C3436   1.389       .  A
C3436      H3440   1.083       .  S
C3441      C3446   1.380       .  A
C3441      C3442   1.405       .  A
C3441      O3447   1.321       .  A
C3442      C3443   1.404       .  A
C3442      H3453   1.082       .  S
C3443      C3452   1.363       .  A
C3443      C3444   1.380       .  A
C3444      C3445   1.402       .  A
C3444      O3450   1.317       .  A
C3445      C3446   1.402       .  A
C3445      H3454   1.082       .  S
C3446      C3449   1.360       .  A
O3447      C3448   1.332       .  A
C3448      C3449   1.391       .  A
C3449      H3455   1.082       .  S
O3450      C3451   1.331       .  A
C3451      C3452   1.391       .  A
C3452      H3456   1.082       .  S
C3457      C3462   1.380       .  A
C3457      C3458   1.404       .  A
C3457      O3463   1.319       .  A
C3458      C3459   1.403       .  A
C3458      H3469   1.082       .  S
C3459      C3468   1.363       .  A
C3459      C3460   1.380       .  A
C3460      C3461   1.405       .  A
C3460      O3466   1.320       .  A
C3461      C3462   1.404       .  A
C3461      H3470   1.082       .  S
C3462      C3465   1.365       .  A
O3463      C3464   1.331       .  A
C3464      C3465   1.392       .  A
C3465      H3471   1.082       .  S
O3466      C3467   1.332       .  A
C3467      C3468   1.391       .  A
C3468      H3472   1.082       .  S
C3473      C3478   1.380       .  A
C3473      C3474   1.406       .  A
C3473      O3479   1.317       .  A
C3474      C3475   1.404       .  A
C3474      H3485   1.082       .  S
C3475      C3484   1.366       .  A
C3475      C3476   1.380       .  A
C3476      C3477   1.406       .  A
C3476      O3482   1.319       .  A
C3477      C3478   1.404       .  A
C3477      H3486   1.082       .  S
C3478      C3481   1.367       .  A
O3479      C3480   1.332       .  A
C3480      C3481   1.390       .  A
C3481      H3487   1.082       .  S
O3482      C3483   1.332       .  A
C3483      C3484   1.391       .  A
C3484      H3488   1.082       .  S
C3489      C3494   1.381       .  A
C3489      C3490   1.401       .  A
C3489      O3495   1.321       .  A
C3490      C3491   1.402       .  A
C3490      H3501   1.082       .  S
C3491      C3500   1.356       .  A
C3491      C3492   1.381       .  A
C3492      C3493   1.404       .  A
C3492      O3498   1.322       .  A
C3493      C3494   1.405       .  A
C3493      H3502   1.082       .  S
C3494      C3497   1.359       .  A
O3495      C3496   1.330       .  A
C3496      C3497   1.394       .  A
C3497      H3503   1.083       .  S
O3498      C3499   1.332       .  A
C3499      C3500   1.391       .  A
C3500      H3504   1.083       .  S
C3505      C3510   1.381       .  A
C3505      C3506   1.400       .  A
C3505      O3511   1.316       .  A
C3506      C3507   1.400       .  A
C3506      H3517   1.082       .  S
C3507      C3516   1.358       .  A
C3507      C3508   1.381       .  A
C3508      C3509   1.404       .  A
C3508      O3514   1.320       .  A
C3509      C3510   1.403       .  A
C3509      H3518   1.082       .  S
C3510      C3513   1.362       .  A
O3511      C3512   1.329       .  A
C3512      C3513   1.391       .  A
C3513      H3519   1.083       .  S
O3514      C3515   1.331       .  A
C3515      C3516   1.391       .  A
C3516      H3520   1.083       .  S
C3521      C3526   1.381       .  A
C3521      C3522   1.402       .  A
C3521      O3527   1.318       .  A
C3522      C3523   1.401       .  A
C3522      H3533   1.082       .  S
C3523      C3532   1.358       .  A
C3523      C3524   1.381       .  A
C3524      C3525   1.401       .  A
C3524      O3530   1.318       .  A
C3525      C3526   1.401       .  A
C3525      H3534   1.082       .  S
C3526      C3529   1.358       .  A
O3527      C3528   1.331       .  A
C3528      C3529   1.390       .  A
C3529      H3535   1.083       .  S
O3530      C3531   1.329       .  A
C3531      C3532   1.391       .  A
C3532      H3536   1.083       .  S
C3537      C3542   1.380       .  A
C3537      C3538   1.406       .  A
C3537      O3543   1.322       .  A
C3538      C3539   1.406       .  A
C3538      H3549   1.082       .  S
C3539      C3548   1.364       .  A
C3539      C3540   1.380       .  A
C3540      C3541   1.404       .  A
C3540      O3546   1.321       .  A
C3541      C3542   1.404       .  A
C3541      H3550   1.082       .  S
C3542      C3545   1.364       .  A
O3543      C3544   1.333       .  A
C3544      C3545   1.391       .  A
C3545      H3551   1.082       .  S
O3546      C3547   1.331       .  A
C3547      C3548   1.392       .  A
C3548      H3552   1.082       .  S
C3553      C3558   1.381       .  A
C3553      C3554   1.406       .  A
C3553      O3559   1.324       .  A
C3554      C3555   1.407       .  A
C3554      H3565   1.082       .  S
C3555      C3564   1.364       .  A
C3555      C3556   1.381       .  A
C3556      C3557   1.401       .  A
C3556      O3562   1.319       .  A
C3557      C3558   1.402       .  A
C3557      H3566   1.082       .  S
C3558      C3561   1.357       .  A
O3559      C3560   1.332       .  A
C3560      C3561   1.391       .  A
C3561      H3567   1.083       .  S
O3562      C3563   1.329       .  A
C3563      C3564   1.393       .  A
C3564      H3568   1.083       .  S
C3569      C3574   1.380       .  A
C3569      C3570   1.405       .  A
C3569      O3575   1.324       .  A
C3570      C3571   1.407       .  A
C3570      H3581   1.082       .  S
C3571      C3580   1.361       .  A
C3571      C3572   1.380       .  A
C3572      C3573   1.403       .  A
C3572      O3578   1.323       .  A
C3573      C3574   1.404       .  A
C3573      H3582   1.082       .  S
C3574      C3577   1.358       .  A
O3575      C3576   1.333       .  A
C3576      C3577   1.393       .  A
C3577      H3583   1.083       .  S
O3578      C3579   1.332       .  A
C3579      C3580   1.395       .  A
C3580      H3584   1.083       .  S
C3585      C3590   1.381       .  A
C3585      C3586   1.399       .  A
C3585      O3591   1.315       .  A
C3586      C3587   1.398       .  A
C3586      H3597   1.082       .  S
C3587      C3596   1.357       .  A
C3587      C3588   1.380       .  A
C3588      C3589   1.407       .  A
C3588      O3594   1.321       .  A
C3589      C3590   1.406       .  A
C3589      H3598   1.082       .  S
C3590      C3593   1.365       .  A
O3591      C3592   1.328       .  A
C3592      C3593   1.393       .  A
C3593      H3599   1.083       .  S
O3594      C3595   1.332       .  A
C3595      C3596   1.389       .  A
C3596      H3600   1.083       .  S
C3601      C3606   1.380       .  A
C3601      C3602   1.404       .  A
C3601      O3607   1.320       .  A
C3602      C3603   1.403       .  A
C3602      H3613   1.082       .  S
C3603      C3612   1.362       .  A
C3603      C3604   1.380       .  A
C3604      C3605   1.403       .  A
C3604      O3610   1.319       .  A
C3605      C3606   1.402       .  A
C3605      H3614   1.082       .  S
C3606      C3609   1.360       .  A
O3607      C3608   1.331       .  A
C3608      C3609   1.391       .  A
C3609      H3615   1.083       .  S
O3610      C3611   1.331       .  A
C3611      C3612   1.392       .  A
C3612      H3616   1.083       .  S
C3617      C3622   1.380       .  A
C3617      C3618   1.405       .  A
C3617      O3623   1.321       .  A
C3618      C3619   1.405       .  A
C3618      H3629   1.082       .  S
C3619      C3628   1.362       .  A
C3619      C3620   1.381       .  A
C3620      C3621   1.405       .  A
C3620      O3626   1.322       .  A
C3621      C3622   1.405       .  A
C3621      H3630   1.082       .  S
C3622      C3625   1.362       .  A
O3623      C3624   1.332       .  A
C3624      C3625   1.391       .  A
C3625      H3631   1.082       .  S
O3626      C3627   1.332       .  A
C3627      C3628   1.391       .  A
C3628      H3632   1.082       .  S
C3633      C3638   1.380       .  A
C3633      C3634   1.403       .  A
C3633      O3639   1.318       .  A
C3634      C3635   1.403       .  A
C3634      H3645   1.082       .  S
C3635      C3644   1.363       .  A
C3635      C3636   1.380       .  A
C3636      C3637   1.406       .  A
C3636      O3642   1.322       .  A
C3637      C3638   1.405       .  A
C3637      H3646   1.082       .  S
C3638      C3641   1.364       .  A
O3639      C3640   1.331       .  A
C3640      C3641   1.392       .  A
C3641      H3647   1.083       .  S
O3642      C3643   1.333       .  A
C3643      C3644   1.391       .  A
C3644      H3648   1.082       .  S
