geometry optimzed in LAMMPS
_audit_creation_date              2020-11-30 
_audit_creation_method            'lammps2cif' 
_symmetry_space_group_name_H-M    'P1' 
_symmetry_Int_Tables_number       1 
_symmetry_cell_setting            triclinic 
loop_ 
_symmetry_equiv_pos_as_xyz 
  x,y,z 
_cell_length_a                    41.72409168962059 
_cell_length_b                    34.13048778088549 
_cell_length_c                    39.32715012564019 
_cell_angle_alpha                 89.9055876531005 
_cell_angle_beta                  98.27410082694924 
_cell_angle_gamma                 90.90494371776433 
loop_ 
_atom_site_label 
_atom_site_type_symbol 
_atom_site_fract_x 
_atom_site_fract_y 
_atom_site_fract_z 
_atom_site_charge 
O1          O  0.16836407  0.55907640  0.33143073    -0.82930
C2          C  0.06006629  0.64722301  0.34315743     0.96420
O3          O  0.08588997  0.63686042  0.36116803    -0.72050
O4          O  0.13208612  0.58804484  0.38269579    -0.75640
Al5        Al  0.12685266  0.62879751  0.34716272     1.48980
C6          C  0.12188466  0.55268330  0.38194938     0.91670
O7          O  0.08168939  0.52589148  0.29228149    -0.81860
O8          O  0.08891704  0.57969471  0.24537710    -0.75420
Al9        Al  0.12378757  0.54795107  0.31141770     1.90120
O10         O  0.05022286  0.57557862  0.29650120    -0.74490
O11         O  0.10417467  0.65139632  0.26618180    -0.74340
O12         O  0.05908172  0.64904191  0.31097781    -0.80000
O13         O  0.12435635  0.67573921  0.31678035    -0.78200
O14         O  0.11032252  0.59676948  0.31355975    -1.14340
O15         O  0.17023987  0.62285016  0.33892991    -0.73530
C16         C  0.18427487  0.59022760  0.34047413     0.97180
C17         C  0.05351177  0.53989838  0.29059265     0.93580
Al18       Al  0.07839035  0.61283728  0.28223198     1.55560
O19         O  0.11252275  0.53541465  0.35409180    -0.78150
C20         C  0.11785396  0.67900946  0.28402785     0.97750
C21         C  0.11350607  0.55964772  0.24181074     0.92630
O22         O  0.13569930  0.55553676  0.26701965    -0.83470
O23         O  0.33064136  0.56180451  0.42963766    -0.82930
C24         C  0.44766351  0.64357629  0.41402397     0.96420
O25         O  0.41968726  0.65352317  0.40023939    -0.72050
O26         O  0.38879786  0.59366342  0.36616397    -0.75640
Al27       Al  0.37777433  0.62916366  0.40136404     1.48980
C28         C  0.38237412  0.55720249  0.36402755     0.91670
O29         O  0.41901143  0.52541675  0.43877983    -0.81860
O30         O  0.39288488  0.59992308  0.00507857    -0.75420
Al31       Al  0.37562183  0.54677187  0.43505701     1.90120
O32         O  0.44030070  0.56545375  0.47909038    -0.74490
O33         O  0.40726371  0.66412916  0.47160444    -0.74340
O34         O  0.45104233  0.62390348  0.44138380    -0.80000
O35         O  0.36467056  0.66844603  0.43285500    -0.78200
O36         O  0.39066167  0.59611261  0.43573618    -1.14340
O37         O  0.33402379  0.61099792  0.39400312    -0.73530
C38         C  0.31740726  0.58545533  0.40710556     0.97180
C39         C  0.44247562  0.53593598  0.46111281     0.93580
Al40       Al  0.42003055  0.61221113  0.47085218     1.55560
O41         O  0.37288168  0.53908004  0.38839339    -0.78150
C42         C  0.38159765  0.68090375  0.46031642     0.97750
C43         C  0.38146319  0.56564750  0.00806630     0.92630
O44         O  0.37546926  0.54318983  0.48258261    -0.83470
O45         O  0.35752140  0.44552089  0.23017370    -0.82930
C46         C  0.43952795  0.36236617  0.15496078     0.96420
O47         O  0.43916421  0.35913277  0.18697193    -0.72050
O48         O  0.44537662  0.43217842  0.20460496    -0.75640
Al49       Al  0.41766191  0.39311162  0.21619681     1.48980
C50         C  0.44127197  0.46677137  0.21350825     0.91670
O51         O  0.38445801  0.47381221  0.14719986    -0.81860
O52         O  0.32972474  0.38090890  0.15642866    -0.75420
Al53       Al  0.37152751  0.45735946  0.18783185     1.90120
O54         O  0.36693112  0.42292569  0.11510308    -0.74490
O55         O  0.37608429  0.33027383  0.17681808    -0.74340
O56         O  0.41475610  0.37479926  0.13632120    -0.80000
O57         O  0.39165526  0.35303026  0.22911960    -0.78200
O58         O  0.38688229  0.40971688  0.18419517    -1.14340
O59         O  0.40466009  0.42424457  0.25355243    -0.73530
C60         C  0.37931836  0.44363991  0.25581033     0.97180
C61         C  0.37597607  0.45884766  0.11822803     0.93580
Al62       Al  0.37293541  0.37926814  0.14879851     1.55560
O63         O  0.41275862  0.48035642  0.21040744    -0.78150
C64         C  0.38033178  0.32556612  0.20953705     0.97750
C65         C  0.31391300  0.41193731  0.15603568     0.92630
O66         O  0.32784096  0.44432975  0.16537983    -0.83470
O67         O  0.13974806  0.44335819  0.01605443    -0.82930
C68         C  0.05489214  0.35864046  0.08869086     0.96420
O69         O  0.05563371  0.35504386  0.05675197    -0.72050
O70         O  0.05020984  0.42739305  0.03759305    -0.75640
Al71       Al  0.07838877  0.38893381  0.02783529     1.48980
C72         C  0.05522467  0.46194144  0.02872225     0.91670
O73         O  0.11034372  0.47020530  0.09861985    -0.81860
O74         O  0.16551753  0.37888405  0.08890048    -0.75420
Al75       Al  0.12437801  0.45451270  0.05788054     1.90120
O76         O  0.12788549  0.41923648  0.12997519    -0.74490
O77         O  0.11891329  0.32693225  0.06827708    -0.74340
O78         O  0.07994421  0.37037192  0.10781905    -0.80000
O79         O  0.10439391  0.34946806  0.01593769    -0.78200
O80         O  0.10860498  0.40633482  0.06069654    -1.14340
O81         O  0.09317025  0.41994392  0.49106202    -0.73530
C82         C  0.11894204  0.43984165  0.48960464     0.97180
C83         C  0.11880329  0.45481484  0.12747798     0.93580
Al84       Al  0.12200455  0.37588564  0.09608227     1.55560
O85         O  0.08387340  0.47637292  0.03360404    -0.78150
C86         C  0.11582814  0.32263587  0.03561980     0.97750
C87         C  0.18138142  0.41057240  0.09052044     0.92630
O88         O  0.16755590  0.44270191  0.08175087    -0.83470
O89         O  0.39105775  0.94617355  0.01736486    -0.82930
C90         C  0.30153428  0.86337951  0.08579564     0.96420
O91         O  0.30073549  0.86274217  0.05335971    -0.72050
O92         O  0.30002079  0.93462249  0.03482882    -0.75640
Al93       Al  0.32621331  0.89476855  0.02503131     1.48980
C94         C  0.30611318  0.96964213  0.02873503     0.91670
O95         O  0.35721735  0.97194961  0.09648806    -0.81860
O96         O  0.41289581  0.88104609  0.08641952    -0.75420
Al97       Al  0.37359827  0.95753927  0.05734491     1.90120
O98         O  0.37417556  0.92061781  0.12762256    -0.74490
O99         O  0.36471139  0.82972598  0.06437857    -0.74340
O100        O  0.32731110  0.87295904  0.10436315    -0.80000
O101        O  0.34966625  0.85305099  0.01268863    -0.78200
O102        O  0.35654750  0.90972445  0.05843696    -1.14340
O103        O  0.34463342  0.92479159  0.48952944    -0.73530
C104        C  0.37197727  0.94219254  0.48972595     0.97180
C105        C  0.36395618  0.95580815  0.12522094     0.93580
Al106      Al  0.36894743  0.87812241  0.09302720     1.55560
O107        O  0.33518555  0.98211441  0.03167443    -0.78150
C108        C  0.35865425  0.82480179  0.03178577     0.97750
C109        C  0.42892740  0.91259295  0.09137130     0.92630
O110        O  0.41525081  0.94490633  0.08336720    -0.83470
O111        O  0.10819789  0.94251835  0.23137211    -0.82930
C112        C  0.18545198  0.86049065  0.15137118     0.96420
O113        O  0.18718696  0.85727828  0.18373280    -0.72050
O114        O  0.19557667  0.92928583  0.20407283    -0.75640
Al115      Al  0.16740392  0.89019852  0.21512833     1.48980
C116        C  0.19179274  0.96403888  0.21277915     0.91670
O117        O  0.13436160  0.97238414  0.14895648    -0.81860
O118        O  0.07652298  0.88280846  0.15929721    -0.75420
Al119      Al  0.12186081  0.95588627  0.18946493     1.90120
O120        O  0.11382327  0.92327923  0.11650450    -0.74490
O121        O  0.12195085  0.82908066  0.17636605    -0.74340
O122        O  0.15979096  0.87246385  0.13427241    -0.80000
O123        O  0.14177261  0.85000332  0.22819381    -0.78200
O124        O  0.13589681  0.90801341  0.18445412    -1.14340
O125        O  0.15539670  0.92033977  0.25383265    -0.73530
C126        C  0.12990175  0.93923426  0.25688342     0.97180
C127        C  0.12428162  0.95873074  0.11983802     0.93580
Al128      Al  0.11927761  0.87872910  0.14922345     1.55560
O129        O  0.16341456  0.97736773  0.21153644    -0.78150
C130        C  0.12786901  0.82375994  0.20893989     0.97750
C131        C  0.06221625  0.91510872  0.15838805     0.92630
O132        O  0.07800209  0.94615276  0.16756362    -0.83470
O133        O  0.08079087  0.05910840  0.41047552    -0.82930
C134        C  0.19322384  0.14455017  0.40985005     0.96420
O135        O  0.16811516  0.13453486  0.38994350    -0.72050
O136        O  0.12156300  0.08518975  0.36583855    -0.75640
Al137      Al  0.12565572  0.12776905  0.40033728     1.48980
C138        C  0.13164396  0.05000647  0.36824746     0.91670
O139        O  0.16172127  0.02535991  0.46186965    -0.81860
O140        O  0.14972871  0.08195402  0.00449900    -0.75420
Al141      Al  0.12275375  0.04812531  0.43632214     1.90120
O142        O  0.19562436  0.07474637  0.46080767    -0.74490
O143        O  0.14150744  0.15297429  0.48077539    -0.74340
O144        O  0.19217426  0.14654677  0.44190802    -0.80000
O145        O  0.12759109  0.17607464  0.42863734    -0.78200
O146        O  0.13831885  0.09661941  0.43537430    -1.14340
O147        O  0.08158490  0.12326164  0.40643980    -0.73530
C148        C  0.06631343  0.09103654  0.40338486     0.97180
C149        C  0.19038205  0.03920137  0.46576981     0.93580
Al150      Al  0.16736664  0.11306605  0.46947630     1.55560
O151        O  0.13972164  0.03482995  0.39721928    -0.78150
C152        C  0.13040822  0.18005187  0.46125738     0.97750
C153        C  0.12327161  0.06265186  0.00422435     0.92630
O154        O  0.10465244  0.05784083  0.47644262    -0.83470
O155        O  0.41963747  0.06288301  0.32827795    -0.82930
C156        C  0.30841943  0.14379712  0.34185234     0.96420
O157        O  0.33414242  0.13272874  0.35967551    -0.72050
O158        O  0.38255598  0.08510507  0.37940219    -0.75640
Al159      Al  0.37543753  0.12830864  0.34570628     1.48980
C160        C  0.37412951  0.04899187  0.37693910     0.91670
O161        O  0.33482386  0.02629024  0.28578829    -0.81860
O162        O  0.34170390  0.08244942  0.24155039    -0.75420
Al163      Al  0.37591157  0.05010026  0.30706092     1.90120
O164        O  0.30166442  0.07401864  0.29120299    -0.74490
O165        O  0.35391432  0.15415332  0.26569047    -0.74340
O166        O  0.30755799  0.14669972  0.30958238    -0.80000
O167        O  0.37130363  0.17699483  0.31755836    -0.78200
O168        O  0.36048439  0.09754000  0.31077124    -1.14340
O169        O  0.41860749  0.12635515  0.33680673    -0.73530
C170        C  0.43410620  0.09493974  0.33723129     0.97180
C171        C  0.30617475  0.03901046  0.28383602     0.93580
Al172      Al  0.32884823  0.11346781  0.27935293     1.55560
O173        O  0.36395449  0.03440724  0.34813067    -0.78150
C174        C  0.36590396  0.18161151  0.28488532     0.97750
C175        C  0.36728191  0.06343108  0.23901930     0.92630
O176        O  0.38910462  0.06188572  0.26448747    -0.83470
C177        C  0.22127519  0.16043409  0.35926924    -0.10290
C178        C  0.22376671  0.15199431  0.39466542     0.05900
C179        C  0.25500425  0.14547761  0.41282862    -0.04060
C180        C  0.28206035  0.14525169  0.39527798    -0.08510
C181        C  0.27932039  0.15122949  0.35942762     0.05020
C182        C  0.24833350  0.16021673  0.34168547    -0.03530
Br183      Br  0.24030976  0.17092298  0.29327706    -0.03230
H184        H  0.19770616  0.16592691  0.34467279     0.08930
H185        H  0.30538308  0.13856360  0.40986298     0.06950
Br186      Br  0.26268457  0.13314801  0.46094442    -0.03660
C187        C  0.47683829  0.11233634  0.38535794    -0.10290
C188        C  0.46844826  0.09497845  0.35281038     0.05900
C189        C  0.49237592  0.07560031  0.33774702    -0.04060
C190        C  0.02380585  0.07303040  0.35552432    -0.08510
C191        C  0.03214098  0.09056404  0.38785981     0.05020
C192        C  0.00845572  0.11039841  0.40282711    -0.03530
Br193      Br  0.01796170  0.13335831  0.44769131    -0.03230
H194        H  0.45852595  0.12676926  0.39758301     0.08930
H195        H  0.04215520  0.05839411  0.34354777     0.06950
Br196      Br  0.48432223  0.05571353  0.29186553    -0.03660
C197        C  0.24695467  0.03246483  0.27039928    -0.10290
C198        C  0.27747567  0.01625326  0.26841040     0.05900
C199        C  0.27940047  0.98393103  0.24661675    -0.04060
C200        C  0.25125784  0.96928128  0.22714298    -0.08510
C201        C  0.22077869  0.98580776  0.22890823     0.05020
C202        C  0.21894065  0.01822387  0.25060581    -0.03530
Br203      Br  0.17970413  0.04529218  0.25491685    -0.03230
H204        H  0.24482853  0.05756308  0.28674922     0.08930
H205        H  0.25330703  0.94415630  0.21080446     0.06950
Br206      Br  0.31908436  0.95840351  0.24122233    -0.03660
C207        C  0.11089249  0.00006756  0.28131503    -0.10290
C208        C  0.12851187  0.96508706  0.28682538     0.05900
C209        C  0.14805092  0.95956513  0.31859855    -0.04060
C210        C  0.14977717  0.98864805  0.34374163    -0.08510
C211        C  0.13226734  0.02378596  0.33827067     0.05020
C212        C  0.11293720  0.02945341  0.30629952    -0.03530
Br213      Br  0.08896287  0.07628494  0.29447842    -0.03230
H214        H  0.09637501  0.00558919  0.25669750     0.08930
H215        H  0.16473086  0.98326258  0.36814176     0.06950
Br216      Br  0.17189059  0.91248472  0.32992004    -0.03660
C217        C  0.13706750  0.04900310  0.06611423    -0.10290
C218        C  0.11731083  0.04026852  0.03514775     0.05900
C219        C  0.09798328  0.00541631  0.03311624    -0.04060
C220        C  0.10117106  0.97896617  0.06061220    -0.08510
C221        C  0.12280238  0.98646096  0.09061306     0.05020
C222        C  0.14033126  0.02269565  0.09346780    -0.03530
Br223      Br  0.17159823  0.03801881  0.13231404    -0.03230
H224        H  0.15191810  0.07550822  0.06835662     0.08930
H225        H  0.08654224  0.95229219  0.05848297     0.06950
Br226      Br  0.06777549  0.99016575  0.99356959    -0.03660
C227        C  0.24915196  0.98426000  0.02786686    -0.10290
C228        C  0.27818507  0.99289477  0.01504852     0.05900
C229        C  0.27719543  0.01378346  0.48411556    -0.04060
C230        C  0.24753604  0.02534755  0.46663590    -0.08510
C231        C  0.21857605  0.01652857  0.47941351     0.05020
C232        C  0.21947613  0.99520320  0.01006184    -0.03530
Br233      Br  0.18159522  0.98022752  0.02928385    -0.03230
H234        H  0.24948382  0.96712987  0.05117729     0.08930
H235        H  0.24707685  0.04232135  0.44323037     0.06950
Br236      Br  0.31463814  0.02596891  0.46322797    -0.03660
C237        C  0.39393620  0.00238812  0.46576032    -0.10290
C238        C  0.37878481  0.96527167  0.45975872     0.05900
C239        C  0.36523205  0.95509839  0.42625602    -0.04060
C240        C  0.36431262  0.98289629  0.40018671    -0.08510
C241        C  0.37690113  0.02140493  0.40650131     0.05020
C242        C  0.39290767  0.03052412  0.43965937    -0.03530
Br243      Br  0.41253770  0.08077651  0.45179959    -0.03230
H244        H  0.40460041  0.01077242  0.49154011     0.08930
H245        H  0.35298500  0.97410861  0.37475980     0.06950
Br246      Br  0.34788681  0.90364360  0.41462437    -0.03660
C247        C  0.38719350  0.97782824  0.18344980    -0.10290
C248        C  0.36270137  0.98080356  0.15549960     0.05900
C249        C  0.34055120  0.01188558  0.15457578    -0.04060
C250        C  0.34384137  0.03966396  0.18094505    -0.08510
C251        C  0.36861299  0.03716939  0.20904721     0.05020
C252        C  0.39035444  0.00524659  0.21010898    -0.03530
Br253      Br  0.42419434  0.99444697  0.24715788    -0.03230
H254        H  0.40454815  0.95442689  0.18420448     0.08930
H255        H  0.32620927  0.06275999  0.17984930     0.06950
Br256      Br  0.30419626  0.01717481  0.11885214    -0.03660
C257        C  0.24148837  0.85286064  0.08250799    -0.10290
C258        C  0.27211816  0.85525401  0.10265641     0.05900
C259        C  0.27349406  0.85395053  0.13903746    -0.04060
C260        C  0.24496880  0.85296424  0.15390802    -0.08510
C261        C  0.21436776  0.85336236  0.13383852     0.05020
C262        C  0.21288497  0.85185824  0.09754888    -0.03530
Br263      Br  0.17290485  0.84889445  0.06650199    -0.03230
H264        H  0.23961169  0.85331976  0.05474367     0.08930
H265        H  0.24690849  0.85384703  0.18167532     0.06950
Br266      Br  0.31294744  0.85495874  0.17120166    -0.03660
C267        C  0.48258087  0.94598393  0.10638817    -0.10290
C268        C  0.46308236  0.91240261  0.10864817     0.05900
C269        C  0.47606640  0.88091373  0.12955070    -0.04060
C270        C  0.00793300  0.88319636  0.14639848    -0.08510
C271        C  0.02749345  0.91650557  0.14368478     0.05020
C272        C  0.01435966  0.94835565  0.12353264    -0.03530
Br273      Br  0.03873450  0.99504965  0.11610804    -0.03230
H274        H  0.47316842  0.97061533  0.09084648     0.08930
H275        H  0.01757170  0.85854216  0.16178562     0.06950
Br276      Br  0.45192397  0.83438621  0.13811022    -0.03660
C277        C  0.10957509  0.25036677  0.02910024    -0.10290
C278        C  0.12274123  0.28561712  0.01872896     0.05900
C279        C  0.13655507  0.28627429  0.48784495    -0.04060
C280        C  0.13676106  0.25225573  0.46796212    -0.08510
C281        C  0.12357684  0.21700427  0.47831062     0.05020
C282        C  0.10983222  0.21632018  0.00924964    -0.03530
Br283      Br  0.08984140  0.16988708  0.02500978    -0.03230
H284        H  0.09784360  0.24965065  0.05195785     0.08930
H285        H  0.14849362  0.25298830  0.44510499     0.06950
Br286      Br  0.15675891  0.33265902  0.47227211    -0.03660
C287        C  0.36530101  0.28944450  0.26002809    -0.10290
C288        C  0.37420990  0.28789005  0.22673584     0.05900
C289        C  0.38188867  0.25130236  0.21386794    -0.04060
C290        C  0.38044498  0.21757440  0.23406331    -0.08510
C291        C  0.37167263  0.21918431  0.26740205     0.05020
C292        C  0.36392229  0.25573907  0.28023511    -0.03530
Br293      Br  0.34934509  0.26123659  0.32406879    -0.03230
H294        H  0.35951356  0.31733930  0.27060348     0.08930
H295        H  0.38620209  0.18965165  0.22351864     0.06950
Br296      Br  0.39651362  0.24575566  0.17006471    -0.03660
C297        C  0.22222226  0.41287205  0.14273611    -0.10290
C298        C  0.21541510  0.41012749  0.10675682     0.05900
C299        C  0.24088491  0.40388815  0.08782682    -0.04060
C300        C  0.27272812  0.40292728  0.10482808    -0.08510
C301        C  0.27975063  0.41047877  0.14027628     0.05020
C302        C  0.25420084  0.41462341  0.15947256    -0.03530
Br303      Br  0.26198640  0.42081607  0.20841394    -0.03230
H304        H  0.20252708  0.41389532  0.15785846     0.08930
H305        H  0.29226075  0.39744675  0.09011868     0.06950
Br306      Br  0.23315356  0.39571547  0.03915500    -0.03660
C307        C  0.46609852  0.35360859  0.10252802    -0.10290
C308        C  0.46893148  0.35344176  0.13869358     0.05900
C309        C  0.00019527  0.34911772  0.15759431    -0.04060
C310        C  0.02740065  0.34805065  0.14039560    -0.08510
C311        C  0.02472195  0.35125182  0.10435453     0.05020
C312        C  0.49329916  0.35263980  0.08535275    -0.03530
Br313      Br  0.48517791  0.35672611  0.03616523    -0.03230
H314        H  0.44246887  0.35629781  0.08722500     0.08930
H315        H  0.05113295  0.34640824  0.15567089     0.06950
Br316      Br  0.00845900  0.34720709  0.20690158    -0.03660
C317        C  0.35079921  0.74275077  0.46453295    -0.10290
C318        C  0.37302528  0.71565208  0.48012453     0.05900
C319        C  0.38779868  0.72310129  0.01465870    -0.04060
C320        C  0.38217433  0.75811129  0.03116970    -0.08510
C321        C  0.36153216  0.78623710  0.01476946     0.05020
C322        C  0.34462947  0.77739057  0.48143988    -0.03530
Br323      Br  0.31152784  0.80985663  0.45736702    -0.03230
H324        H  0.33839650  0.73728058  0.43878228     0.08930
H325        H  0.39455256  0.76364649  0.05692832     0.06950
Br326      Br  0.41542221  0.68718931  0.04245602    -0.03660
C327        C  0.36369197  0.50807038  0.27759420    -0.10290
C328        C  0.37903225  0.47170746  0.28454415     0.05900
C329        C  0.39795840  0.46619368  0.31675550    -0.04060
C330        C  0.40131293  0.49649107  0.34090858    -0.08510
C331        C  0.38582497  0.53262280  0.33406599     0.05020
C332        C  0.36696555  0.53833147  0.30199903    -0.03530
Br333      Br  0.34382373  0.58588433  0.29126618    -0.03230
H334        H  0.34955450  0.51343134  0.25273952     0.08930
H335        H  0.41484959  0.49107359  0.36610513     0.06950
Br336      Br  0.41767719  0.41706119  0.33036818    -0.03660
C337        C  0.34927824  0.52914831  0.04535352    -0.10290
C338        C  0.37877066  0.54755984  0.04139226     0.05900
C339        C  0.40708452  0.53631463  0.06297041    -0.04060
C340        C  0.40578683  0.50546592  0.08619752    -0.08510
C341        C  0.37653292  0.48565832  0.08893322     0.05020
C342        C  0.34786503  0.49926846  0.06949451    -0.03530
Br343      Br  0.30598759  0.48074644  0.07646944    -0.03230
H344        H  0.32735357  0.53724599  0.02873425     0.08930
H345        H  0.42778139  0.49708217  0.10256422     0.06950
Br346      Br  0.44860210  0.56018316  0.06048863    -0.03660
C347        C  0.50038189  0.53876396  0.98339772    -0.10290
C348        C  0.47345616  0.51553167  0.46905661     0.05900
C349        C  0.47560704  0.47472835  0.47084081    -0.04060
C350        C  0.00287476  0.45820665  0.48995426    -0.08510
C351        C  0.02807591  0.48176628  0.00777125     0.05020
C352        C  0.02713525  0.52247113  0.00327763    -0.03530
Br353      Br  0.05940884  0.55776384  0.02635903    -0.03230
H354        H  0.49941184  0.57042847  0.98164032     0.08930
H355        H  0.00394039  0.42655396  0.49144262     0.06950
Br356      Br  0.44145061  0.44052403  0.45007883    -0.03660
C357        C  0.13018226  0.75073925  0.21239485    -0.10290
C358        C  0.12144032  0.78620387  0.22610981     0.05900
C359        C  0.11287207  0.78613524  0.25974822    -0.04060
C360        C  0.11391002  0.75149784  0.27905989    -0.08510
C361        C  0.12292172  0.71610150  0.26552246     0.05020
C362        C  0.13094430  0.71595683  0.23164994    -0.03530
Br363      Br  0.14475172  0.66940911  0.21084228    -0.03230
H364        H  0.13780283  0.75034141  0.18719599     0.08930
H365        H  0.10641464  0.75198012  0.30432018     0.06950
Br366      Br  0.09828813  0.83238452  0.28040137    -0.03660
C367        C  0.09189649  0.48498674  0.44577529    -0.10290
C368        C  0.12067603  0.46678711  0.46034525     0.05900
C369        C  0.15032937  0.48017780  0.45087886    -0.04300
C370        C  0.15069493  0.51099653  0.42729584    -0.08510
C371        C  0.12189151  0.52909048  0.41309207     0.05020
C372        C  0.09234994  0.51583679  0.42247403    -0.03530
Br373      Br  0.05199450  0.53905923  0.40370374    -0.03230
H374        H  0.06888084  0.47594976  0.45322605     0.08930
H375        H  0.17336983  0.51965565  0.41877660     0.06950
Br376      Br  0.19059742  0.45566426  0.46733747    -0.03660
C377        C  0.08804381  0.49287413  0.16481111    -0.10290
C378        C  0.11812274  0.47999399  0.15785497     0.05900
C379        C  0.14638754  0.49816399  0.17520835    -0.04060
C380        C  0.14442490  0.52444167  0.20207024    -0.08510
C381        C  0.11436836  0.53628843  0.21008738     0.05020
C382        C  0.08585617  0.52152591  0.18980850    -0.03530
Br383      Br  0.04309772  0.53938501  0.19348548    -0.03230
H384        H  0.06602878  0.48153798  0.14974349     0.08930
H385        H  0.16659156  0.53669183  0.21611156     0.06950
Br386      Br  0.18761073  0.49343933  0.16018299    -0.03660
C387        C  0.22722031  0.60513108  0.38983346    -0.10290
C388        C  0.21856692  0.58796198  0.35715481     0.05900
C389        C  0.24220467  0.56713657  0.34273921    -0.04060
C390        C  0.27391812  0.56489923  0.36042082    -0.08510
C391        C  0.28255535  0.58229967  0.39295310     0.05020
C392        C  0.25879395  0.60228500  0.40772773    -0.03530
Br393      Br  0.26884871  0.62699123  0.45179041    -0.03230
H394        H  0.20920349  0.62058601  0.40167208     0.08930
H395        H  0.29223325  0.55041640  0.34826064     0.06950
Br396      Br  0.23293556  0.54384675  0.29797972    -0.03660
C397        C  0.03480496  0.65532749  0.39647317    -0.10290
C398        C  0.03086884  0.65460342  0.36028190     0.05900
C399        C  0.49888829  0.65589781  0.34230651    -0.04060
C400        C  0.47227119  0.65492549  0.36051626    -0.08510
C401        C  0.47639861  0.65255087  0.39658685     0.05020
C402        C  0.00822085  0.65433551  0.41455783    -0.03530
Br403      Br  0.01732746  0.65564463  0.46383546    -0.03230
H404        H  0.05889479  0.65522987  0.41109434     0.08930
H405        H  0.44806786  0.65382237  0.34613643     0.06950
Br406      Br  0.48899899  0.65633455  0.29306643    -0.03660
C407        C  0.99453908  0.53750503  0.27147256    -0.10290
C408        C  0.02421873  0.51755435  0.27605579     0.05900
C409        C  0.02581205  0.48079606  0.26029814    -0.04060
C410        C  0.49889960  0.46642131  0.23875380    -0.08510
C411        C  0.46962449  0.48720098  0.23281076     0.05020
C412        C  0.46759114  0.52312832  0.24981159    -0.03530
Br413      Br  0.42981397  0.55526655  0.24408586    -0.03230
H414        H  0.99254738  0.56572012  0.28349756     0.08930
H415        H  0.50110390  0.43824116  0.22674148     0.06950
Br416      Br  0.06374719  0.44878442  0.26541767    -0.03660
O417        O  0.16836266  0.55907573  0.83143141    -0.82930
C418        C  0.06006501  0.64722437  0.84315666     0.96420
O419        O  0.08588826  0.63686105  0.86116770    -0.72050
O420        O  0.13208407  0.58804484  0.88269629    -0.75640
Al421      Al  0.12685129  0.62879737  0.84716309     1.48980
C422        C  0.12188280  0.55268323  0.88194992     0.91670
O423        O  0.08168764  0.52589171  0.79228191    -0.81860
O424        O  0.08891611  0.57969459  0.74537722    -0.75420
Al425      Al  0.12378600  0.54795077  0.81141818     1.90120
O426        O  0.05022140  0.57557941  0.79650071    -0.74490
O427        O  0.10417455  0.65139598  0.76618187    -0.74340
O428        O  0.05908093  0.64904281  0.81097709    -0.80000
O429        O  0.12435576  0.67573892  0.81678056    -0.78200
O430        O  0.11032128  0.59676936  0.81356000    -1.14340
O431        O  0.17023879  0.62284940  0.83893109    -0.73530
C432        C  0.18427366  0.59022673  0.84047518     0.97180
C433        C  0.05351010  0.53989900  0.79059265     0.93580
Al434      Al  0.07838953  0.61283752  0.78223181     1.55560
O435        O  0.11252096  0.53541456  0.85409232    -0.78150
C436        C  0.11785377  0.67900909  0.78402802     0.97750
C437        C  0.11350494  0.55964723  0.74181097     0.92630
O438        O  0.13569798  0.55553586  0.76702003    -0.83470
O439        O  0.33064177  0.56180305  0.92963718    -0.82930
C440        C  0.44766161  0.64358064  0.91402206     0.96420
O441        O  0.41968498  0.65352471  0.90023658    -0.72050
O442        O  0.38879540  0.59366424  0.86616267    -0.75640
Al443      Al  0.37777271  0.62916450  0.90136325     1.48980
C444        C  0.38237327  0.55720293  0.86402692     0.91670
O445        O  0.41901271  0.52541746  0.93878054    -0.81860
O446        O  0.39288256  0.59992437  0.50507793    -0.75420
Al447      Al  0.37562281  0.54677214  0.93505694     1.90120
O448        O  0.44030365  0.56545824  0.97908727    -0.74490
O449        O  0.40726062  0.66412972  0.97160558    -0.74340
O450        O  0.45104106  0.62390960  0.94138276    -0.80000
O451        O  0.36466930  0.66844764  0.93285389    -0.78200
O452        O  0.39066156  0.59611372  0.93573570    -1.14340
O453        O  0.33402241  0.61099814  0.89400400    -0.73530
C454        C  0.31740671  0.58545439  0.90710606     0.97180
C455        C  0.44247739  0.53593803  0.96111241     0.93580
Al456      Al  0.42003054  0.61221343  0.97085142     1.55560
O457        O  0.37288309  0.53907999  0.88839367    -0.78150
C458        C  0.38159538  0.68090502  0.96031601     0.97750
C459        C  0.38146089  0.56564879  0.50806615     0.92630
O460        O  0.37547028  0.54318972  0.98258224    -0.83470
O461        O  0.35751941  0.44552064  0.73017332    -0.82930
C462        C  0.43952647  0.36236807  0.65495942     0.96420
O463        O  0.43916271  0.35913418  0.68697054    -0.72050
O464        O  0.44537480  0.43217960  0.70460453    -0.75640
Al465      Al  0.41766024  0.39311235  0.71619585     1.48980
C466        C  0.44127002  0.46677234  0.71350832     0.91670
O467        O  0.38445608  0.47381375  0.64720003    -0.81860
O468        O  0.32972336  0.38090969  0.65642761    -0.75420
Al469      Al  0.37152558  0.45736018  0.68783171     1.90120
O470        O  0.36692934  0.42292776  0.61510253    -0.74490
O471        O  0.37608306  0.33027480  0.67681625    -0.74340
O472        O  0.41475465  0.37480143  0.63631997    -0.80000
O473        O  0.39165370  0.35303061  0.72911805    -0.78200
O474        O  0.38688062  0.40971787  0.68419440    -1.14340
O475        O  0.40465822  0.42424459  0.75355185    -0.73530
C476        C  0.37931639  0.44363971  0.75580991     0.97180
C477        C  0.37597413  0.45884975  0.61822799     0.93580
Al478      Al  0.37293394  0.37926961  0.64879735     1.55560
O479        O  0.41275661  0.48035721  0.71040767    -0.78150
C480        C  0.38033036  0.32556669  0.70953518     0.97750
C481        C  0.31391141  0.41193787  0.65603505     0.92630
O482        O  0.32783913  0.44433036  0.66537951    -0.83470
O483        O  0.13974783  0.44335858  0.51605366    -0.82930
C484        C  0.05489068  0.35864212  0.58868940     0.96420
O485        O  0.05563235  0.35504541  0.55675053    -0.72050
O486        O  0.05020930  0.42739439  0.53759127    -0.75640
Al487      Al  0.07838797  0.38893481  0.52783392     1.48980
C488        C  0.05522430  0.46194250  0.52871989     0.91670
O489        O  0.11034246  0.47020663  0.59861839    -0.81860
O490        O  0.16551617  0.37888489  0.58889956    -0.75420
Al491      Al  0.12437722  0.45451365  0.55787932     1.90120
O492        O  0.12788407  0.41923787  0.62997393    -0.74490
O493        O  0.11891190  0.32693319  0.56827629    -0.74340
O494        O  0.07994273  0.37037344  0.60781769    -0.80000
O495        O  0.10439290  0.34946867  0.51593675    -0.78200
O496        O  0.10860398  0.40633583  0.56069532    -1.14340
O497        O  0.09317034  0.41994346  0.99106331    -0.73530
C498        C  0.11894194  0.43984143  0.98960565     0.97180
C499        C  0.11880195  0.45481627  0.62747661     0.93580
Al500      Al  0.12200317  0.37588679  0.59608120     1.55560
O501        O  0.08387300  0.47637399  0.53360201    -0.78150
C502        C  0.11582696  0.32263658  0.53561905     0.97750
C503        C  0.18138013  0.41057316  0.59051972     0.92630
O504        O  0.16755478  0.44270278  0.58175025    -0.83470
O505        O  0.39105798  0.94617069  0.51736491    -0.82930
C506        C  0.30153469  0.86337712  0.58579604     0.96420
O507        O  0.30073606  0.86273928  0.55336013    -0.72050
O508        O  0.30002081  0.93461936  0.53482820    -0.75640
Al509      Al  0.32621381  0.89476550  0.52503151     1.48980
C510        C  0.30611311  0.96963903  0.52873436     0.91670
O511        O  0.35721715  0.97194766  0.59648767    -0.81860
O512        O  0.41289612  0.88104430  0.58642026    -0.75420
Al513      Al  0.37359827  0.95753688  0.55734473     1.90120
O514        O  0.37417557  0.92061636  0.62762272    -0.74490
O515        O  0.36471210  0.82972366  0.56437978    -0.74340
O516        O  0.32731137  0.87295709  0.60436359    -0.80000
O517        O  0.34966725  0.85304806  0.51268956    -0.78200
O518        O  0.35654773  0.90972204  0.55843720    -1.14340
O519        O  0.34463297  0.92479489  0.98952946    -0.73530
C520        C  0.37197694  0.94219556  0.98972594     0.97180
C521        C  0.36395604  0.95580661  0.62522072     0.93580
Al522      Al  0.36894774  0.87812051  0.59302782     1.55560
O523        O  0.33518546  0.98211147  0.53167391    -0.78150
C524        C  0.35865526  0.82479914  0.53178703     0.97750
C525        C  0.42892757  0.91259129  0.59137173     0.92630
O526        O  0.41525085  0.94490451  0.58336728    -0.83470
O527        O  0.10819799  0.94251760  0.73137200    -0.82930
C528        C  0.18545229  0.86048985  0.65137131     0.96420
O529        O  0.18718722  0.85727761  0.68373294    -0.72050
O530        O  0.19557686  0.92928522  0.70407289    -0.75640
Al531      Al  0.16740412  0.89019791  0.71512839     1.48980
C532        C  0.19179289  0.96403828  0.71277918     0.91670
O533        O  0.13436185  0.97238345  0.64895653    -0.81860
O534        O  0.07652332  0.88280771  0.65929715    -0.75420
Al535      Al  0.12186098  0.95588558  0.68946489     1.90120
O536        O  0.11382359  0.92327856  0.61650447    -0.74490
O537        O  0.12195120  0.82907999  0.67636605    -0.74340
O538        O  0.15979134  0.87246318  0.63427247    -0.80000
O539        O  0.14177279  0.85000275  0.72819384    -0.78200
O540        O  0.13589706  0.90801275  0.68445411    -1.14340
O541        O  0.15539682  0.92033924  0.75383266    -0.73530
C542        C  0.12990182  0.93923369  0.75688333     0.97180
C543        C  0.12428189  0.95873009  0.61983806     0.93580
Al544      Al  0.11927795  0.87872842  0.64922343     1.55560
O545        O  0.16341470  0.97736710  0.71153645    -0.78150
C546        C  0.12786927  0.82375933  0.70893991     0.97750
C547        C  0.06221652  0.91510792  0.65838802     0.92630
O548        O  0.07800230  0.94615201  0.66756352    -0.83470
O549        O  0.08079045  0.05910865  0.91047504    -0.82930
C550        C  0.19322368  0.14455000  0.90984904     0.96420
O551        O  0.16811489  0.13453477  0.88994262    -0.72050
O552        O  0.12156262  0.08518974  0.86583790    -0.75640
Al553      Al  0.12565549  0.12776910  0.90033664     1.48980
C554        C  0.13164353  0.05000643  0.86824687     0.91670
O555        O  0.16172096  0.02535984  0.96186899    -0.81860
O556        O  0.14972858  0.08195415  0.50449970    -0.75420
Al557      Al  0.12275339  0.04812540  0.93632159     1.90120
O558        O  0.19562405  0.07474619  0.96080634    -0.74490
O559        O  0.14150770  0.15297420  0.98077479    -0.74340
O560        O  0.19217422  0.14654660  0.94190704    -0.80000
O561        O  0.12759106  0.17607469  0.92863682    -0.78200
O562        O  0.13831862  0.09661944  0.93537361    -1.14340
O563        O  0.08158469  0.12326187  0.90643929    -0.73530
C564        C  0.06631311  0.09103684  0.90338431     0.97180
C565        C  0.19038176  0.03920127  0.96576882     0.93580
Al566      Al  0.16736665  0.11306591  0.96947542     1.55560
O567        O  0.13972109  0.03482990  0.89721870    -0.78150
C568        C  0.13040842  0.18005183  0.96125690     0.97750
C569        C  0.12327158  0.06265177  0.50422487     0.92630
O570        O  0.10465229  0.05784108  0.97644218    -0.83470
O571        O  0.41963748  0.06288397  0.82827670    -0.82930
C572        C  0.30841915  0.14379759  0.84185082     0.96420
O573        O  0.33414232  0.13272971  0.85967398    -0.72050
O574        O  0.38255608  0.08510657  0.87940090    -0.75640
Al575      Al  0.37543740  0.12830965  0.84570461     1.48980
C576        C  0.37412968  0.04899334  0.87693817     0.91670
O577        O  0.33482398  0.02629037  0.78578767    -0.81860
O578        O  0.34170356  0.08244908  0.74154920    -0.75420
Al579      Al  0.37591162  0.05010084  0.80705992     1.90120
O580        O  0.30166438  0.07401866  0.79120215    -0.74490
O581        O  0.35391368  0.15415339  0.76568856    -0.74340
O582        O  0.30755758  0.14669992  0.80958082    -0.80000
O583        O  0.37130318  0.17699543  0.81755623    -0.78200
O584        O  0.36048427  0.09754055  0.81076988    -1.14340
O585        O  0.41860739  0.12635619  0.83680497    -0.73530
C586        C  0.43410616  0.09494079  0.83722981     0.97180
C587        C  0.30617482  0.03901042  0.78383546     0.93580
Al588      Al  0.32884789  0.11346783  0.77935156     1.55560
O589        O  0.36395476  0.03440829  0.84812988    -0.78150
C590        C  0.36590324  0.18161182  0.78488318     0.97750
C591        C  0.36728163  0.06343083  0.73901817     0.92630
O592        O  0.38910444  0.06188586  0.76448628    -0.83470
C593        C  0.22127484  0.16043385  0.85926803    -0.10290
C594        C  0.22376649  0.15199408  0.89466423     0.05900
C595        C  0.25500409  0.14547749  0.91282730    -0.04060
C596        C  0.28206015  0.14525174  0.89527656    -0.08510
C597        C  0.27932009  0.15122964  0.85942620     0.05020
C598        C  0.24833311  0.16021668  0.84168416    -0.03530
Br599      Br  0.24030922  0.17092299  0.79327577    -0.03230
H600        H  0.19770576  0.16592656  0.84467165     0.08930
H601        H  0.30538293  0.13856375  0.90986149     0.06950
Br602      Br  0.26268459  0.13314781  0.96094309    -0.03660
C603        C  0.47683816  0.11233773  0.88535648    -0.10290
C604        C  0.46844821  0.09497955  0.85280903     0.05900
C605        C  0.49237585  0.07560080  0.83774610    -0.04060
C606        C  0.02380564  0.07303057  0.85552368    -0.08510
C607        C  0.03214070  0.09056453  0.88785904     0.05020
C608        C  0.00845548  0.11039956  0.90282588    -0.03530
Br609      Br  0.01796128  0.13335985  0.94768993    -0.03230
H610        H  0.45852584  0.12677106  0.89758127     0.08930
H611        H  0.04215496  0.05839378  0.84354745     0.06950
Br612      Br  0.48432230  0.05571340  0.79186480    -0.03660
C613        C  0.24695476  0.03246442  0.77039914    -0.10290
C614        C  0.27747579  0.01625296  0.76841018     0.05900
C615        C  0.27940060  0.98393064  0.74661665    -0.04060
C616        C  0.25125798  0.96928076  0.72714297    -0.08510
C617        C  0.22077882  0.98580721  0.72890822     0.05020
C618        C  0.21894075  0.01822335  0.75060575    -0.03530
Br619      Br  0.17970420  0.04529161  0.75491680    -0.03230
H620        H  0.24482860  0.05756272  0.78674902     0.08930
H621        H  0.25330718  0.94415574  0.71080451     0.06950
Br622      Br  0.31908452  0.95840316  0.74122226    -0.03660
C623        C  0.11089235  0.00006707  0.78131463    -0.10290
C624        C  0.12851186  0.96508667  0.78682516     0.05900
C625        C  0.14805093  0.95956501  0.81859835    -0.04060
C626        C  0.14977708  0.98864808  0.84374127    -0.08510
C627        C  0.13226709  0.02378586  0.83827015     0.05020
C628        C  0.11293694  0.02945306  0.80629899    -0.03530
Br629      Br  0.08896242  0.07628442  0.79447772    -0.03230
H630        H  0.09637486  0.00558850  0.75669707     0.08930
H631        H  0.16473079  0.98326281  0.86814142     0.06950
Br632      Br  0.17189075  0.91248476  0.82992007    -0.03660
C633        C  0.13706750  0.04900279  0.56611466    -0.10290
C634        C  0.11731077  0.04026835  0.53514819     0.05900
C635        C  0.09798323  0.00541613  0.53311657    -0.04060
C636        C  0.10117114  0.97896579  0.56061239    -0.08510
C637        C  0.12280256  0.98646042  0.59061320     0.05020
C638        C  0.14033139  0.02269515  0.59346807    -0.03530
Br639      Br  0.17159846  0.03801817  0.63231428    -0.03230
H640        H  0.15191806  0.07550794  0.56835715     0.08930
H641        H  0.08654233  0.95229181  0.55848308     0.06950
Br642      Br  0.06777524  0.99016588  0.49356999    -0.03660
C643        C  0.24915184  0.98425710  0.52786627    -0.10290
C644        C  0.27818499  0.99289176  0.51504796     0.05900
C645        C  0.27719535  0.01378540  0.98411555    -0.04060
C646        C  0.24753582  0.02534803  0.96663525    -0.08510
C647        C  0.21857585  0.01652883  0.97941283     0.05020
C648        C  0.21947614  0.99520180  0.51006190    -0.03530
Br649      Br  0.18159516  0.98022682  0.52928411    -0.03230
H650        H  0.24948355  0.96712626  0.55117629     0.08930
H651        H  0.24707649  0.04232111  0.94322930     0.06950
Br652      Br  0.31463810  0.02597146  0.96322823    -0.03660
C653        C  0.39393596  0.00239088  0.96575996    -0.10290
C654        C  0.37878462  0.96527438  0.95975862     0.05900
C655        C  0.36523205  0.95510065  0.92625597    -0.04060
C656        C  0.36431274  0.98289817  0.90018641    -0.08510
C657        C  0.37690121  0.02140686  0.90650067     0.05020
C658        C  0.39290757  0.03052651  0.93965871    -0.03530
Br659      Br  0.41253757  0.08077904  0.95179846    -0.03230
H660        H  0.40460002  0.01077550  0.99153972     0.08930
H661        H  0.35298526  0.97411014  0.87475954     0.06950
Br662      Br  0.34788693  0.90364574  0.91462471    -0.03660
C663        C  0.38719334  0.97782743  0.68344936    -0.10290
C664        C  0.36270120  0.98080241  0.65549914     0.05900
C665        C  0.34055096  0.01188438  0.65457506    -0.04060
C666        C  0.34384107  0.03966304  0.68094411    -0.08510
C667        C  0.36861271  0.03716881  0.70904629     0.05020
C668        C  0.39035424  0.00524607  0.71010830    -0.03530
Br669      Br  0.42419420  0.99444689  0.74715727    -0.03230
H670        H  0.40454804  0.95442611  0.68420424     0.08930
H671        H  0.32620892  0.06275903  0.67984819     0.06950
Br672      Br  0.30419603  0.01717318  0.61885135    -0.03660
C673        C  0.24148874  0.85285872  0.58250826    -0.10290
C674        C  0.27211851  0.85525182  0.60265674     0.05900
C675        C  0.27349434  0.85394851  0.63903778    -0.04060
C676        C  0.24496905  0.85296270  0.65390828    -0.08510
C677        C  0.21436804  0.85336115  0.63383872     0.05020
C678        C  0.21288530  0.85185681  0.59754910    -0.03530
Br679      Br  0.17290521  0.84889338  0.56650214    -0.03230
H680        H  0.23961211  0.85331773  0.55474394     0.08930
H681        H  0.24690870  0.85384560  0.68167558     0.06950
Br682      Br  0.31294769  0.85495627  0.67120202    -0.03660
C683        C  0.48258092  0.94598263  0.60638832    -0.10290
C684        C  0.46308253  0.91240126  0.60864858     0.05900
C685        C  0.47606671  0.88091260  0.62955130    -0.04060
C686        C  0.00793336  0.88319537  0.64639895    -0.08510
C687        C  0.02749368  0.91650461  0.64368493     0.05020
C688        C  0.01435973  0.94835451  0.62353268    -0.03530
Br689      Br  0.03873441  0.99504853  0.61610773    -0.03230
H690        H  0.47316836  0.97061389  0.59084650     0.08930
H691        H  0.01757218  0.85854133  0.66178622     0.06950
Br692      Br  0.45192446  0.83438508  0.63811125    -0.03660
C693        C  0.10957442  0.25036734  0.52910015    -0.10290
C694        C  0.12274020  0.28561772  0.51872846     0.05900
C695        C  0.13655617  0.28627390  0.98784550    -0.04060
C696        C  0.13676186  0.25225557  0.96796229    -0.08510
C697        C  0.12357723  0.21700415  0.97831037     0.05020
C698        C  0.10983184  0.21632051  0.50924990    -0.03530
Br699      Br  0.08984137  0.16988742  0.52501051    -0.03230
H700        H  0.09784297  0.24965136  0.55195779     0.08930
H701        H  0.14849448  0.25298827  0.94510521     0.06950
Br702      Br  0.15676051  0.33265861  0.97227330    -0.03660
C703        C  0.36529937  0.28944470  0.76002581    -0.10290
C704        C  0.37420836  0.28789045  0.72673361     0.05900
C705        C  0.38188720  0.25130285  0.71386559    -0.04060
C706        C  0.38044366  0.21757481  0.73406090    -0.08510
C707        C  0.37167144  0.21918461  0.76739971     0.05020
C708        C  0.36392085  0.25573924  0.78023278    -0.03530
Br709      Br  0.34934358  0.26123657  0.82406645    -0.03230
H710        H  0.35951176  0.31733942  0.77060126     0.08930
H711        H  0.38620087  0.18965212  0.72351619     0.06950
Br712      Br  0.39651202  0.24575644  0.67006226    -0.03660
C713        C  0.22222079  0.41287404  0.64273539    -0.10290
C714        C  0.21541370  0.41012806  0.60675619     0.05900
C715        C  0.24088340  0.40388698  0.58782645    -0.04060
C716        C  0.27272653  0.40292591  0.60482782    -0.08510
C717        C  0.27974906  0.41047904  0.64027575     0.05020
C718        C  0.25419934  0.41462530  0.65947184    -0.03530
Br719      Br  0.26198489  0.42081975  0.70841305    -0.03230
H720        H  0.20252559  0.41389837  0.65785764     0.08930
H721        H  0.29225909  0.39744412  0.59011866     0.06950
Br722      Br  0.23315199  0.39571255  0.53915483    -0.03660
C723        C  0.46609700  0.35361089  0.60252656    -0.10290
C724        C  0.46892996  0.35344376  0.63869212     0.05900
C725        C  0.00019374  0.34911951  0.65759275    -0.04060
C726        C  0.02739909  0.34805230  0.64039403    -0.08510
C727        C  0.02472041  0.35125370  0.60435298     0.05020
C728        C  0.49329763  0.35264199  0.58535128    -0.03530
Br729      Br  0.48517646  0.35672875  0.53616379    -0.03230
H730        H  0.44246737  0.35630040  0.58722356     0.08930
H731        H  0.05113137  0.34640958  0.65566931     0.06950
Br732      Br  0.00845748  0.34720861  0.70690001    -0.03660
C733        C  0.35079837  0.74275370  0.96453103    -0.10290
C734        C  0.37302282  0.71565377  0.98012361     0.05900
C735        C  0.38780241  0.72310024  0.51465906    -0.04060
C736        C  0.38217740  0.75810978  0.53117046    -0.08510
C737        C  0.36153353  0.78623444  0.51477103     0.05020
C738        C  0.34462909  0.77739396  0.98143766    -0.03530
Br739      Br  0.31152930  0.80986154  0.95736347    -0.03230
H740        H  0.33839659  0.73728408  0.93877988     0.08930
H741        H  0.39455656  0.76364566  0.55692858     0.06950
Br742      Br  0.41542871  0.68718982  0.54245497    -0.03660
C743        C  0.36368921  0.50806981  0.77759403    -0.10290
C744        C  0.37903030  0.47170731  0.78454372     0.05900
C745        C  0.39795734  0.46619419  0.81675465    -0.04060
C746        C  0.40131223  0.49649189  0.84090743    -0.08510
C747        C  0.38582350  0.53262321  0.83406514     0.05020
C748        C  0.36696295  0.53833113  0.80199867    -0.03530
Br749      Br  0.34381982  0.58588318  0.79126630    -0.03230
H750        H  0.34955094  0.51343026  0.75273968     0.08930
H751        H  0.41484976  0.49107489  0.86610363     0.06950
Br752      Br  0.41767692  0.41706213  0.83036731    -0.03660
C753        C  0.34927563  0.52914827  0.54535197    -0.10290
C754        C  0.37876743  0.54756235  0.54139233     0.05900
C755        C  0.40708097  0.53632028  0.56297259    -0.04060
C756        C  0.40578385  0.50547160  0.58619981    -0.08510
C757        C  0.37653078  0.48566108  0.58893361     0.05020
C758        C  0.34786288  0.49926841  0.56949301    -0.03530
Br759      Br  0.30598579  0.48074244  0.57646516    -0.03230
H760        H  0.32735120  0.53724371  0.52873119     0.08930
H761        H  0.42777822  0.49709002  0.60256795     0.06950
Br762      Br  0.44859754  0.56019289  0.56049342    -0.03660
C763        C  0.50038038  0.53876381  0.48339556    -0.10290
C764        C  0.47345735  0.51553251  0.96905824     0.05900
C765        C  0.47560730  0.47472910  0.97084329    -0.04060
C766        C  0.00287443  0.45820680  0.98995749    -0.08510
C767        C  0.02807578  0.48176675  0.50776809     0.05020
C768        C  0.02713445  0.52247158  0.50327447    -0.03530
Br769      Br  0.05940810  0.55776492  0.52635480    -0.03230
H770        H  0.49940939  0.57042827  0.48163867     0.08930
H771        H  0.00393940  0.42655409  0.99144608     0.06950
Br772      Br  0.44145055  0.44052535  0.95008109    -0.03660
C773        C  0.13018265  0.75073867  0.71239507    -0.10290
C774        C  0.12144054  0.78620330  0.72610986     0.05900
C775        C  0.11287209  0.78613477  0.75974818    -0.04060
C776        C  0.11390997  0.75149744  0.77905992    -0.08510
C777        C  0.12292180  0.71610108  0.76552266     0.05020
C778        C  0.13094462  0.71595631  0.73165024    -0.03530
Br779      Br  0.14475223  0.66940854  0.71084282    -0.03230
H780        H  0.13780339  0.75034077  0.68719629     0.08930
H781        H  0.10641440  0.75197978  0.80432013     0.06950
Br782      Br  0.09828796  0.83238410  0.78040109    -0.03660
C783        C  0.09189570  0.48498679  0.94577683    -0.10290
C784        C  0.12067541  0.46678713  0.96034627     0.05900
C785        C  0.15032849  0.48017775  0.95087920    -0.04300
C786        C  0.15069363  0.51099637  0.92729599    -0.08510
C787        C  0.12189005  0.52909032  0.91309267     0.05020
C788        C  0.09234872  0.51583672  0.92247533    -0.03530
Br789      Br  0.05199310  0.53905919  0.90370576    -0.03230
H790        H  0.06888024  0.47594987  0.95322812     0.08930
H791        H  0.17336832  0.51965542  0.91877626     0.06950
Br792      Br  0.19059671  0.45566421  0.96733708    -0.03660
C793        C  0.08804255  0.49287512  0.66481024    -0.10290
C794        C  0.11812144  0.47999542  0.65785366     0.05900
C795        C  0.14638625  0.49816534  0.67520713    -0.04060
C796        C  0.14442371  0.52444216  0.70206970    -0.08510
C797        C  0.11436721  0.53628840  0.71008732     0.05020
C798        C  0.08585498  0.52152625  0.68980822    -0.03530
Br799      Br  0.04309653  0.53938499  0.69348573    -0.03230
H800        H  0.06602748  0.48153910  0.64974260     0.08930
H801        H  0.16659038  0.53669223  0.71611108     0.06950
Br802      Br  0.18760921  0.49344196  0.66018095    -0.03660
C803        C  0.22722011  0.60513279  0.88983324    -0.10290
C804        C  0.21856589  0.58796083  0.85715586     0.05900
C805        C  0.24220302  0.56713258  0.84274166    -0.04060
C806        C  0.27391649  0.56489503  0.86042336    -0.08510
C807        C  0.28255451  0.58229832  0.89295435     0.05020
C808        C  0.25879381  0.60228678  0.90772750    -0.03530
Br809      Br  0.26884961  0.62699718  0.95178826    -0.03230
H810        H  0.20920390  0.62059004  0.90167090     0.08930
H811        H  0.29223112  0.55041005  0.84826403     0.06950
Br812      Br  0.23293327  0.54383940  0.79798357    -0.03660
C813        C  0.03480319  0.65533200  0.89647175    -0.10290
C814        C  0.03086742  0.65460637  0.86028054     0.05900
C815        C  0.49888703  0.65590069  0.84230487    -0.04060
C816        C  0.47226968  0.65492936  0.86051433    -0.08510
C817        C  0.47639675  0.65255577  0.89658498     0.05020
C818        C  0.00821885  0.65434119  0.91455612    -0.03530
Br819      Br  0.01732519  0.65565188  0.96383376    -0.03230
H820        H  0.05889292  0.65523455  0.91109315     0.08930
H821        H  0.44806646  0.65382597  0.84613427     0.06950
Br822      Br  0.48899824  0.65633599  0.79306473    -0.03660
C823        C  0.99453726  0.53750569  0.77147307    -0.10290
C824        C  0.02421693  0.51755504  0.77605598     0.05900
C825        C  0.02581013  0.48079681  0.76029818    -0.04060
C826        C  0.49889764  0.46642212  0.73875390    -0.08510
C827        C  0.46962252  0.48720179  0.73281108     0.05020
C828        C  0.46758924  0.52312899  0.74981216    -0.03530
Br829      Br  0.42981195  0.55526702  0.74408696    -0.03230
H830        H  0.99254566  0.56572070  0.78349825     0.08930
H831        H  0.50110190  0.43824206  0.72674143     0.06950
Br832      Br  0.06374528  0.44878520  0.76541714    -0.03660
O833        O  0.66836388  0.55907618  0.33143105    -0.82930
C834        C  0.56006615  0.64722323  0.34315719     0.96420
O835        O  0.58588972  0.63686049  0.36116792    -0.72050
O836        O  0.63208577  0.58804480  0.38269598    -0.75640
Al837      Al  0.62685247  0.62879742  0.34716283     1.48980
C838        C  0.62188434  0.55268325  0.38194960     0.91670
O839        O  0.58168921  0.52589139  0.29228167    -0.81860
O840        O  0.58891711  0.57969448  0.24537717    -0.75420
Al841      Al  0.62378739  0.54795090  0.31141794     1.90120
O842        O  0.55022271  0.57557865  0.29650105    -0.74490
O843        O  0.60417487  0.65139609  0.26618180    -0.74340
O844        O  0.55908170  0.64904198  0.31097758    -0.80000
O845        O  0.62435633  0.67573906  0.31678039    -0.78200
O846        O  0.61032240  0.59676934  0.31355985    -1.14340
O847        O  0.67023972  0.62284995  0.33893020    -0.73530
C848        C  0.68427469  0.59022737  0.34047444     0.97180
C849        C  0.55351160  0.53989837  0.29059266     0.93580
Al850      Al  0.57839037  0.61283718  0.28223192     1.55560
O851        O  0.61252244  0.53541459  0.35409202    -0.78150
C852        C  0.61785408  0.67900927  0.28402788     0.97750
C853        C  0.61350612  0.55964738  0.24181095     0.92630
O854        O  0.63569927  0.55553641  0.26701994    -0.83470
O855        O  0.83064111  0.56180463  0.42963795    -0.82930
C856        C  0.94766372  0.64357529  0.41402449     0.96420
O857        O  0.91968754  0.65352272  0.40024008    -0.72050
O858        O  0.88879817  0.59366311  0.36616441    -0.75640
Al859      Al  0.87777447  0.62916335  0.40136436     1.48980
C860        C  0.88237414  0.55720226  0.36402787     0.91670
O861        O  0.91901106  0.52541651  0.43877985    -0.81860
O862        O  0.89288442  0.59992315  0.00507864    -0.75420
Al863      Al  0.87562149  0.54677168  0.43505721     1.90120
O864        O  0.94029998  0.56545275  0.47909117    -0.74490
O865        O  0.90726415  0.66412893  0.47160436    -0.74340
O866        O  0.95104243  0.62390215  0.44138416    -0.80000
O867        O  0.86467064  0.66844558  0.43285536    -0.78200
O868        O  0.89066153  0.59611225  0.43573644    -1.14340
O869        O  0.83402386  0.61099770  0.39400311    -0.73530
C870        C  0.81740716  0.58545532  0.40710565     0.97180
C871        C  0.94247516  0.53593550  0.46111303     0.93580
Al872      Al  0.92003040  0.61221056  0.47085249     1.55560
O873        O  0.87288123  0.53907990  0.38839352    -0.78150
C874        C  0.88159794  0.68090339  0.46031663     0.97750
C875        C  0.88146276  0.56564756  0.00806645     0.92630
O876        O  0.87546894  0.54318971  0.48258289    -0.83470
O877        O  0.85752156  0.44552074  0.23017407    -0.82930
C878        C  0.93952793  0.36236637  0.15496076     0.96420
O879        O  0.93916425  0.35913287  0.18697191    -0.72050
O880        O  0.94537668  0.43217850  0.20460501    -0.75640
Al881      Al  0.91766204  0.39311164  0.21619692     1.48980
C882        C  0.94127204  0.46677143  0.21350836     0.91670
O883        O  0.88445788  0.47381235  0.14720017    -0.81860
O884        O  0.82972478  0.38090891  0.15642901    -0.75420
Al885      Al  0.87152753  0.45735947  0.18783218     1.90120
O886        O  0.86693096  0.42292590  0.11510334    -0.74490
O887        O  0.87608439  0.33027388  0.17681822    -0.74340
O888        O  0.91475604  0.37479948  0.13632126    -0.80000
O889        O  0.89165545  0.35303024  0.22911975    -0.78200
O890        O  0.88688233  0.40971694  0.18419538    -1.14340
O891        O  0.90466033  0.42424452  0.25355265    -0.73530
C892        C  0.87931858  0.44363980  0.25581064     0.97180
C893        C  0.87597588  0.45884788  0.11822833     0.93580
Al894      Al  0.87293540  0.37926826  0.14879871     1.55560
O895        O  0.91275868  0.48035645  0.21040768    -0.78150
C896        C  0.88033193  0.32556613  0.20953719     0.97750
C897        C  0.81391300  0.41193728  0.15603608     0.92630
O898        O  0.82784093  0.44432973  0.16538026    -0.83470
O899        O  0.63974804  0.44335804  0.01605461    -0.82930
C900        C  0.55489226  0.35864008  0.08869105     0.96420
O901        O  0.55563383  0.35504350  0.05675216    -0.72050
O902        O  0.55020985  0.42739273  0.03759332    -0.75640
Al903      Al  0.57838882  0.38893355  0.02783549     1.48980
C904        C  0.55522467  0.46194117  0.02872264     0.91670
O905        O  0.61034383  0.47020494  0.09862015    -0.81860
O906        O  0.66551763  0.37888376  0.08890061    -0.75420
Al907      Al  0.62437805  0.45451243  0.05788079     1.90120
O908        O  0.62788562  0.41923608  0.12997542    -0.74490
O909        O  0.61891339  0.32693196  0.06827718    -0.74340
O910        O  0.57994433  0.37037153  0.10781925    -0.80000
O911        O  0.60439400  0.34946786  0.01593781    -0.78200
O912        O  0.60860505  0.40633454  0.06069675    -1.14340
O913        O  0.59317015  0.41994372  0.49106230    -0.73530
C914        C  0.61894191  0.43984150  0.48960490     0.97180
C915        C  0.61880343  0.45481444  0.12747826     0.93580
Al916      Al  0.62200466  0.37588530  0.09608244     1.55560
O917        O  0.58387340  0.47637264  0.03360442    -0.78150
C918        C  0.61582824  0.32263563  0.03561989     0.97750
C919        C  0.68138150  0.41057212  0.09052060     0.92630
O920        O  0.66755596  0.44270162  0.08175105    -0.83470
O921        O  0.89105776  0.94617337  0.01736477    -0.82930
C922        C  0.80153437  0.86337925  0.08579563     0.96420
O923        O  0.80073563  0.86274182  0.05335971    -0.72050
O924        O  0.80002080  0.93462208  0.03482867    -0.75640
Al925      Al  0.82621341  0.89476821  0.02503127     1.48980
C926        C  0.80611313  0.96964175  0.02873487     0.91670
O927        O  0.85721730  0.97194945  0.09648796    -0.81860
O928        O  0.91289587  0.88104600  0.08641954    -0.75420
Al929      Al  0.87359824  0.95753908  0.05734481     1.90120
O930        O  0.87417560  0.92061774  0.12762251    -0.74490
O931        O  0.86471152  0.82972578  0.06437869    -0.74340
O932        O  0.82731116  0.87295890  0.10436315    -0.80000
O933        O  0.84966647  0.85305069  0.01268869    -0.78200
O934        O  0.85654755  0.90972423  0.05843692    -1.14340
O935        O  0.84463349  0.92479105  0.48952934    -0.73530
C936        C  0.87197729  0.94219211  0.48972584     0.97180
C937        C  0.86395618  0.95580805  0.12522085     0.93580
Al938      Al  0.86894750  0.87812228  0.09302722     1.55560
O939        O  0.83518549  0.98211410  0.03167431    -0.78150
C940        C  0.85865444  0.82480153  0.03178589     0.97750
C941        C  0.92892743  0.91259290  0.09137128     0.92630
O942        O  0.91525081  0.94490625  0.08336712    -0.83470
O943        O  0.60819791  0.94251815  0.23137208    -0.82930
C944        C  0.68545205  0.86049050  0.15137113     0.96420
O945        O  0.68718704  0.85727815  0.18373276    -0.72050
O946        O  0.69557668  0.92928571  0.20407276    -0.75640
Al947      Al  0.66740397  0.89019837  0.21512828     1.48980
C948        C  0.69179274  0.96403876  0.21277909     0.91670
O949        O  0.63436159  0.97238397  0.14895645    -0.81860
O950        O  0.57652301  0.88280827  0.15929715    -0.75420
Al951      Al  0.62186081  0.95588609  0.18946489     1.90120
O952        O  0.61382331  0.92327904  0.11650445    -0.74490
O953        O  0.62195091  0.82908047  0.17636603    -0.74340
O954        O  0.65979101  0.87246367  0.13427237    -0.80000
O955        O  0.64177269  0.85000314  0.22819378    -0.78200
O956        O  0.63589684  0.90801323  0.18445408    -1.14340
O957        O  0.65539674  0.92033961  0.25383261    -0.73530
C958        C  0.62990177  0.93923408  0.25688338     0.97180
C959        C  0.62428165  0.95873055  0.11983798     0.93580
Al960      Al  0.61927766  0.87872892  0.14922341     1.55560
O961        O  0.66341455  0.97736758  0.21153640    -0.78150
C962        C  0.62786911  0.82375975  0.20893987     0.97750
C963        C  0.56221627  0.91510852  0.15838799     0.92630
O964        O  0.57800210  0.94615255  0.16756359    -0.83470
O965        O  0.58079084  0.05910830  0.41047550    -0.82930
C966        C  0.69322390  0.14454991  0.40985001     0.96420
O967        O  0.66811521  0.13453464  0.38994347    -0.72050
O968        O  0.62156302  0.08518958  0.36583852    -0.75640
Al969      Al  0.62565578  0.12776887  0.40033726     1.48980
C970        C  0.63164393  0.05000628  0.36824743     0.91670
O971        O  0.66172121  0.02535966  0.46186960    -0.81860
O972        O  0.64972878  0.08195383  0.00449896    -0.75420
Al973      Al  0.62275372  0.04812514  0.43632211     1.90120
O974        O  0.69562437  0.07474606  0.46080762    -0.74490
O975        O  0.64150756  0.15297407  0.48077538    -0.74340
O976        O  0.69217434  0.14654648  0.44190799    -0.80000
O977        O  0.62759119  0.17607445  0.42863734    -0.78200
O978        O  0.63831888  0.09661921  0.43537427    -1.14340
O979        O  0.58158495  0.12326153  0.40643979    -0.73530
C980        C  0.56631343  0.09103646  0.40338485     0.97180
C981        C  0.69038201  0.03920106  0.46576975     0.93580
Al982      Al  0.66736671  0.11306579  0.46947626     1.55560
O983        O  0.63972157  0.03482973  0.39721925    -0.78150
C984        C  0.63040834  0.18005166  0.46125739     0.97750
C985        C  0.62327167  0.06265172  0.00422433     0.92630
O986        O  0.60465244  0.05784069  0.47644260    -0.83470
O987        O  0.91963748  0.06288283  0.32827790    -0.82930
C988        C  0.80841946  0.14379696  0.34185229     0.96420
O989        O  0.83414244  0.13272854  0.35967546    -0.72050
O990        O  0.88255597  0.08510483  0.37940214    -0.75640
Al991      Al  0.87543754  0.12830845  0.34570625     1.48980
C992        C  0.87412949  0.04899162  0.37693903     0.91670
O993        O  0.83482386  0.02629013  0.28578818    -0.81860
O994        O  0.84170394  0.08244935  0.24155032    -0.75420
Al995      Al  0.87591158  0.05010010  0.30706084     1.90120
O996        O  0.80166443  0.07401856  0.29120288    -0.74490
O997        O  0.85391440  0.15415323  0.26569045    -0.74340
O998        O  0.80755804  0.14669961  0.30958233    -0.80000
O999        O  0.87130367  0.17699468  0.31755836    -0.78200
O1000       O  0.86048441  0.09753985  0.31077118    -1.14340
O1001       O  0.91860749  0.12635496  0.33680670    -0.73530
C1002       C  0.93410620  0.09493956  0.33723126     0.97180
C1003       C  0.80617476  0.03901036  0.28383590     0.93580
Al1004     Al  0.82884827  0.11346771  0.27935287     1.55560
O1005       O  0.86395448  0.03440703  0.34813058    -0.78150
C1006       C  0.86590402  0.18161140  0.28488532     0.97750
C1007       C  0.86728194  0.06343099  0.23901922     0.92630
O1008       O  0.88910464  0.06188561  0.26448741    -0.83470
C1009       C  0.72127522  0.16043389  0.35926920    -0.10290
C1010       C  0.72376676  0.15199408  0.39466538     0.05900
C1011       C  0.75500430  0.14547739  0.41282857    -0.04060
C1012       C  0.78206040  0.14525150  0.39527792    -0.08510
C1013       C  0.77932043  0.15122932  0.35942757     0.05020
C1014       C  0.74833353  0.16021656  0.34168543    -0.03530
Br1015     Br  0.74030979  0.17092282  0.29327702    -0.03230
H1016       H  0.69770619  0.16592670  0.34467276     0.08930
H1017       H  0.80538312  0.13856342  0.40986292     0.06950
Br1018     Br  0.76268464  0.13314772  0.46094436    -0.03660
C1019       C  0.97683825  0.11233621  0.38535793    -0.10290
C1020       C  0.96844826  0.09497829  0.35281037     0.05900
C1021       C  0.99237595  0.07560021  0.33774703    -0.04060
C1022       C  0.52380582  0.07303043  0.35552432    -0.08510
C1023       C  0.53214098  0.09056403  0.38785981     0.05020
C1024       C  0.50845576  0.11039846  0.40282712    -0.03530
Br1025     Br  0.51796178  0.13335833  0.44769133    -0.03230
H1026       H  0.95852589  0.12676909  0.39758299     0.08930
H1027       H  0.54215515  0.05839410  0.34354775     0.06950
Br1028     Br  0.98432229  0.05571341  0.29186553    -0.03660
C1029       C  0.74695468  0.03246475  0.27039918    -0.10290
C1030       C  0.77747567  0.01625318  0.26841029     0.05900
C1031       C  0.77940047  0.98393095  0.24661664    -0.04060
C1032       C  0.75125784  0.96928118  0.22714288    -0.08510
C1033       C  0.72077869  0.98580766  0.22890815     0.05020
C1034       C  0.71894065  0.01822377  0.25060572    -0.03530
Br1035     Br  0.67970413  0.04529206  0.25491678    -0.03230
H1036       H  0.74482853  0.05756300  0.28674911     0.08930
H1037       H  0.75330702  0.94415621  0.21080436     0.06950
Br1038     Br  0.81908436  0.95840343  0.24122220    -0.03660
C1039       C  0.61089250  0.00006738  0.28131499    -0.10290
C1040       C  0.62851189  0.96508688  0.28682534     0.05900
C1041       C  0.64805094  0.95956496  0.31859851    -0.04060
C1042       C  0.64977718  0.98864788  0.34374159    -0.08510
C1043       C  0.63226734  0.02378578  0.33827063     0.05020
C1044       C  0.61293720  0.02945322  0.30629948    -0.03530
Br1045     Br  0.58896284  0.07628475  0.29447839    -0.03230
H1046       H  0.59637503  0.00558901  0.25669745     0.08930
H1047       H  0.66473087  0.98326241  0.36814172     0.06950
Br1048     Br  0.67189062  0.91248457  0.32992000    -0.03660
C1049       C  0.63706764  0.04900288  0.06611420    -0.10290
C1050       C  0.61731090  0.04026838  0.03514774     0.05900
C1051       C  0.59798329  0.00541622  0.03311624    -0.04060
C1052       C  0.60117106  0.97896605  0.06061219    -0.08510
C1053       C  0.62280243  0.98646077  0.09061302     0.05020
C1054       C  0.64033139  0.02269541  0.09346775    -0.03530
Br1055     Br  0.67159843  0.03801846  0.13231396    -0.03230
H1056       H  0.65191829  0.07550796  0.06835658     0.08930
H1057       H  0.58654219  0.95229211  0.05848296     0.06950
Br1058     Br  0.56777541  0.99016576  0.99356963    -0.03660
C1059       C  0.74915188  0.98425950  0.02786665    -0.10290
C1060       C  0.77818500  0.99289432  0.01504834     0.05900
C1061       C  0.77719535  0.01378292  0.48411537    -0.04060
C1062       C  0.74753597  0.02534712  0.46663577    -0.08510
C1063       C  0.71857599  0.01652817  0.47941338     0.05020
C1064       C  0.71947606  0.99520278  0.01006166    -0.03530
Br1065     Br  0.68159514  0.98022710  0.02928366    -0.03230
H1066       H  0.74948373  0.96712933  0.05117705     0.08930
H1067       H  0.74707680  0.04232098  0.44323028     0.06950
Br1068     Br  0.81463805  0.02596835  0.46322777    -0.03660
C1069       C  0.89393616  0.00238777  0.46576023    -0.10290
C1070       C  0.87878478  0.96527131  0.45975861     0.05900
C1071       C  0.86523202  0.95509807  0.42625590    -0.04060
C1072       C  0.86431258  0.98289601  0.40018660    -0.08510
C1073       C  0.87690109  0.02140464  0.40650123     0.05020
C1074       C  0.89290762  0.03052380  0.43965930    -0.03530
Br1075     Br  0.91253762  0.08077618  0.45179957    -0.03230
H1076       H  0.90460038  0.01077204  0.49154002     0.08930
H1077       H  0.85298497  0.97410836  0.37475968     0.06950
Br1078     Br  0.84788676  0.90364329  0.41462421    -0.03660
C1079       C  0.88719354  0.97782820  0.18344969    -0.10290
C1080       C  0.86270140  0.98080351  0.15549950     0.05900
C1081       C  0.84055122  0.01188551  0.15457569    -0.04060
C1082       C  0.84384140  0.03966389  0.18094496    -0.08510
C1083       C  0.86861302  0.03716932  0.20904712     0.05020
C1084       C  0.89035448  0.00524655  0.21010886    -0.03530
Br1085     Br  0.92419441  0.99444694  0.24715775    -0.03230
H1086       H  0.90454820  0.95442686  0.18420436     0.08930
H1087       H  0.82620929  0.06275991  0.17984923     0.06950
Br1088     Br  0.80419627  0.01717472  0.11885206    -0.03660
C1089       C  0.74148846  0.85286046  0.08250795    -0.10290
C1090       C  0.77211824  0.85525376  0.10265638     0.05900
C1091       C  0.77349413  0.85395025  0.13903743    -0.04060
C1092       C  0.74496887  0.85296401  0.15390798    -0.08510
C1093       C  0.71436782  0.85336220  0.13383848     0.05020
C1094       C  0.71288505  0.85185811  0.09754884    -0.03530
Br1095     Br  0.67290494  0.84889442  0.06650193    -0.03230
H1096       H  0.73961178  0.85331961  0.05474363     0.08930
H1097       H  0.74690855  0.85384676  0.18167528     0.06950
Br1098     Br  0.81294751  0.85495833  0.17120163    -0.03660
C1099       C  0.98258086  0.94598397  0.10638814    -0.10290
C1100       C  0.96308237  0.91240263  0.10864818     0.05900
C1101       C  0.97606642  0.88091383  0.12955080    -0.04060
C1102       C  0.50793300  0.88319619  0.14639835    -0.08510
C1103       C  0.52749347  0.91650540  0.14368471     0.05020
C1104       C  0.51435968  0.94835554  0.12353264    -0.03530
Br1105     Br  0.53873454  0.99504954  0.11610810    -0.03230
H1106       H  0.97316840  0.97061532  0.09084639     0.08930
H1107       H  0.51757168  0.85854195  0.16178544     0.06950
Br1108     Br  0.95192402  0.83438630  0.13811039    -0.03660
C1109       C  0.60957518  0.25036654  0.02910025    -0.10290
C1110       C  0.62274134  0.28561691  0.01872901     0.05900
C1111       C  0.63655521  0.28627405  0.48784510    -0.04060
C1112       C  0.63676123  0.25225552  0.46796223    -0.08510
C1113       C  0.62357696  0.21700405  0.47831066     0.05020
C1114       C  0.60983232  0.21631997  0.00924962    -0.03530
Br1115     Br  0.58984148  0.16988686  0.02500971    -0.03230
H1116       H  0.59784366  0.24965040  0.05195784     0.08930
H1117       H  0.64849383  0.25298812  0.44510513     0.06950
Br1118     Br  0.65675914  0.33265880  0.47227239    -0.03660
C1119       C  0.86530123  0.28944446  0.26002824    -0.10290
C1120       C  0.87421004  0.28789004  0.22673596     0.05900
C1121       C  0.88188871  0.25130234  0.21386798    -0.04060
C1122       C  0.88044498  0.21757435  0.23406331    -0.08510
C1123       C  0.87167271  0.21918423  0.26740209     0.05020
C1124       C  0.86392248  0.25573899  0.28023522    -0.03530
Br1125     Br  0.84934537  0.26123650  0.32406895    -0.03230
H1126       H  0.85951386  0.31733926  0.27060369     0.08930
H1127       H  0.88620202  0.18965160  0.22351858     0.06950
Br1128     Br  0.89651353  0.24575568  0.17006469    -0.03660
C1129       C  0.72222225  0.41287180  0.14273635    -0.10290
C1130       C  0.71541516  0.41012724  0.10675705     0.05900
C1131       C  0.74088502  0.40388794  0.08782711    -0.04060
C1132       C  0.77272820  0.40292710  0.10482845    -0.08510
C1133       C  0.77975064  0.41047867  0.14027664     0.05020
C1134       C  0.75420081  0.41462326  0.15947286    -0.03530
Br1135     Br  0.76198627  0.42081598  0.20841423    -0.03230
H1136       H  0.70252703  0.41389502  0.15785865     0.08930
H1137       H  0.79226086  0.39744657  0.09011910     0.06950
Br1138     Br  0.73315377  0.39571534  0.03915527    -0.03660
C1139       C  0.96609842  0.35360902  0.10252792    -0.10290
C1140       C  0.96893143  0.35344204  0.13869348     0.05900
C1141       C  0.50019531  0.34911751  0.15759446    -0.04060
C1142       C  0.52740072  0.34805040  0.14039579    -0.08510
C1143       C  0.52472205  0.35125145  0.10435471     0.05020
C1144       C  0.99329904  0.35264028  0.08535261    -0.03530
Br1145     Br  0.98517775  0.35672682  0.03616511    -0.03230
H1146       H  0.94246877  0.35629831  0.08722494     0.08930
H1147       H  0.55113301  0.34640806  0.15567111     0.06950
Br1148     Br  0.50845897  0.34720703  0.20690173    -0.03660
C1149       C  0.85079929  0.74275017  0.46453338    -0.10290
C1150       C  0.87302565  0.71565170  0.48012480     0.05900
C1151       C  0.88779914  0.72310116  0.01465881    -0.04060
C1152       C  0.88217475  0.75811115  0.03116982    -0.08510
C1153       C  0.86153237  0.78623681  0.01476966     0.05020
C1154       C  0.84462951  0.77738992  0.48144034    -0.03530
Br1155     Br  0.81152755  0.80985571  0.45736771    -0.03230
H1156       H  0.83839638  0.73727982  0.43878282     0.08930
H1157       H  0.89455313  0.76364647  0.05692836     0.06950
Br1158     Br  0.91542303  0.68718941  0.04245597    -0.03660
C1159       C  0.86369243  0.50807037  0.27759443    -0.10290
C1160       C  0.87903253  0.47170736  0.28454445     0.05900
C1161       C  0.89795851  0.46619345  0.31675587    -0.04060
C1162       C  0.90131295  0.49649077  0.34090902    -0.08510
C1163       C  0.88582514  0.53262257  0.33406636     0.05020
C1164       C  0.86696598  0.53833142  0.30199929    -0.03530
Br1165     Br  0.84382447  0.58588448  0.29126632    -0.03230
H1166       H  0.84955512  0.51343144  0.25273969     0.08930
H1167       H  0.91484944  0.49107319  0.36610563     0.06950
Br1168     Br  0.91767717  0.41706088  0.33036852    -0.03660
C1169       C  0.84927783  0.52914820  0.04535357    -0.10290
C1170       C  0.87877015  0.54756006  0.04139246     0.05900
C1171       C  0.90708399  0.53631531  0.06297088    -0.04060
C1172       C  0.90578642  0.50546662  0.08619803    -0.08510
C1173       C  0.87653263  0.48565863  0.08893355     0.05020
C1174       C  0.84786472  0.49926841  0.06949464    -0.03530
Br1175     Br  0.80598733  0.48074603  0.07646938    -0.03230
H1176       H  0.82735317  0.53724558  0.02873413     0.08930
H1177       H  0.92778098  0.49708318  0.10256490     0.06950
Br1178     Br  0.94860140  0.56018445  0.06048941    -0.03660
C1179       C  0.00038159  0.53876400  0.98339745    -0.10290
C1180       C  0.97345587  0.51553150  0.46905636     0.05900
C1181       C  0.97560704  0.47472822  0.47084032    -0.04060
C1182       C  0.50287459  0.45820662  0.48995494    -0.08510
C1183       C  0.52807589  0.48176613  0.00777175     0.05020
C1184       C  0.52713539  0.52247098  0.00327809    -0.03530
Br1185     Br  0.55940901  0.55776357  0.02635963    -0.03230
H1186       H  0.99941134  0.57042850  0.98164017     0.08930
H1187       H  0.50394003  0.42655391  0.49144338     0.06950
Br1188     Br  0.94145072  0.44052371  0.45007839    -0.03660
C1189       C  0.63018244  0.75073906  0.21239488    -0.10290
C1190       C  0.62144045  0.78620367  0.22610981     0.05900
C1191       C  0.61287219  0.78613505  0.25974821    -0.04060
C1192       C  0.61391014  0.75149765  0.27905989    -0.08510
C1193       C  0.62292187  0.71610132  0.26552248     0.05020
C1194       C  0.63094450  0.71595665  0.23164999    -0.03530
Br1195     Br  0.64475202  0.66940895  0.21084238    -0.03230
H1196       H  0.63780304  0.75034122  0.18719603     0.08930
H1197       H  0.60641473  0.75197993  0.30432017     0.06950
Br1198     Br  0.59828823  0.83238432  0.28040135    -0.03660
C1199       C  0.59189629  0.48498673  0.44577568    -0.10290
C1200       C  0.62067584  0.46678704  0.46034553     0.05900
C1201       C  0.65032915  0.48017769  0.45087903    -0.04300
C1202       C  0.65069466  0.51099642  0.42729600    -0.08510
C1203       C  0.62189123  0.52909042  0.41309232     0.05020
C1204       C  0.59234969  0.51583678  0.42247439    -0.03530
Br1205     Br  0.55199424  0.53905927  0.40370423    -0.03230
H1206       H  0.56888066  0.47594978  0.45322652     0.08930
H1207       H  0.67336953  0.51965549  0.41877668     0.06950
Br1208     Br  0.69059720  0.45566406  0.46733750    -0.03660
C1209       C  0.58804395  0.49287368  0.16481139    -0.10290
C1210       C  0.61812288  0.47999354  0.15785528     0.05900
C1211       C  0.64638767  0.49816358  0.17520866    -0.04060
C1212       C  0.64442501  0.52444124  0.20207055    -0.08510
C1213       C  0.61436846  0.53628803  0.21008764     0.05020
C1214       C  0.58585629  0.52152550  0.18980873    -0.03530
Br1215     Br  0.54309783  0.53938468  0.19348558    -0.03230
H1216       H  0.56602892  0.48153753  0.14974375     0.08930
H1217       H  0.66659165  0.53669143  0.21611188     0.06950
Br1218     Br  0.68761086  0.49343905  0.16018326    -0.03660
C1219       C  0.72722002  0.60513019  0.38983402    -0.10290
C1220       C  0.71856673  0.58796176  0.35715508     0.05900
C1221       C  0.74220463  0.56713712  0.34273905    -0.04060
C1222       C  0.77391814  0.56489995  0.36042051    -0.08510
C1223       C  0.78255527  0.58229972  0.39295308     0.05020
C1224       C  0.75879372  0.60228420  0.40772817    -0.03530
Br1225     Br  0.76884833  0.62698946  0.45179129    -0.03230
H1226       H  0.70920308  0.62058452  0.40167294     0.08930
H1227       H  0.79223336  0.55041769  0.34826004     0.06950
Br1228     Br  0.73293556  0.54384811  0.29797923    -0.03660
C1229       C  0.53480474  0.65532846  0.39647278    -0.10290
C1230       C  0.53086869  0.65460404  0.36028152     0.05900
C1231       C  0.99888841  0.65589719  0.34230697    -0.04060
C1232       C  0.97227136  0.65492462  0.36051677    -0.08510
C1233       C  0.97639884  0.65254977  0.39658735     0.05020
C1234       C  0.50822060  0.65433672  0.41455738    -0.03530
Br1235     Br  0.51732716  0.65564613  0.46383502    -0.03230
H1236       H  0.55889456  0.65523089  0.41109400     0.08930
H1237       H  0.94806801  0.65382158  0.34613698     0.06950
Br1238     Br  0.98899900  0.65633431  0.29306690    -0.03660
C1239       C  0.49453891  0.53750497  0.27147258    -0.10290
C1240       C  0.52421857  0.51755431  0.27605582     0.05900
C1241       C  0.52581192  0.48079603  0.26029817    -0.04060
C1242       C  0.99889970  0.46642135  0.23875380    -0.08510
C1243       C  0.96962460  0.48720104  0.23281079     0.05020
C1244       C  0.96759129  0.52312840  0.24981159    -0.03530
Br1245     Br  0.92981417  0.55526672  0.24408580    -0.03230
H1246       H  0.49254719  0.56572005  0.28349759     0.08930
H1247       H  0.00110397  0.43824118  0.22674150     0.06950
Br1248     Br  0.56374707  0.44878441  0.26541770    -0.03660
O1249       O  0.66836251  0.55907555  0.83143168    -0.82930
C1250       C  0.56006491  0.64722453  0.84315646     0.96420
O1251       O  0.58588808  0.63686110  0.86116760    -0.72050
O1252       O  0.63208381  0.58804481  0.88269643    -0.75640
Al1253     Al  0.62685115  0.62879729  0.84716315     1.48980
C1254       C  0.62188254  0.55268320  0.88195009     0.91670
O1255       O  0.58168751  0.52589161  0.79228205    -0.81860
O1256       O  0.58891618  0.57969437  0.74537727    -0.75420
Al1257     Al  0.62378587  0.54795062  0.81141838     1.90120
O1258       O  0.55022129  0.57557941  0.79650058    -0.74490
O1259       O  0.60417472  0.65139577  0.76618186    -0.74340
O1260       O  0.55908091  0.64904285  0.81097689    -0.80000
O1261       O  0.62435574  0.67573880  0.81678056    -0.78200
O1262       O  0.61032119  0.59676925  0.81356007    -1.14340
O1263       O  0.67023867  0.62284923  0.83893129    -0.73530
C1264       C  0.68427352  0.59022655  0.84047541     0.97180
C1265       C  0.55350998  0.53989896  0.79059264     0.93580
Al1266     Al  0.57838956  0.61283742  0.78223175     1.55560
O1267       O  0.61252071  0.53541452  0.85409250    -0.78150
C1268       C  0.61785387  0.67900892  0.78402801     0.97750
C1269       C  0.61350500  0.55964693  0.74181115     0.92630
O1270       O  0.63569797  0.55553556  0.76702027    -0.83470
O1271       O  0.83064157  0.56180315  0.92963742    -0.82930
C1272       C  0.94766176  0.64357991  0.91402247     0.96420
O1273       O  0.91968518  0.65352437  0.90023711    -0.72050
O1274       O  0.88879564  0.59366401  0.86616302    -0.75640
Al1275     Al  0.87777281  0.62916427  0.90136351     1.48980
C1276       C  0.88237328  0.55720276  0.86402718     0.91670
O1277       O  0.91901241  0.52541729  0.93878056    -0.81860
O1278       O  0.89288196  0.59992450  0.50507798    -0.75420
Al1279     Al  0.87562255  0.54677200  0.93505711     1.90120
O1280       O  0.94030309  0.56545749  0.97908787    -0.74490
O1281       O  0.90726091  0.66412954  0.97160557    -0.74340
O1282       O  0.95104112  0.62390864  0.94138306    -0.80000
O1283       O  0.86466935  0.66844733  0.93285417    -0.78200
O1284       O  0.89066143  0.59611346  0.93573592    -1.14340
O1285       O  0.83402244  0.61099798  0.89400402    -0.73530
C1286       C  0.81740663  0.58545439  0.90710615     0.97180
C1287       C  0.94247703  0.53593768  0.96111258     0.93580
Al1288     Al  0.92003041  0.61221300  0.97085168     1.55560
O1289       O  0.87288274  0.53907989  0.88839378    -0.78150
C1290       C  0.88159558  0.68090477  0.96031619     0.97750
C1291       C  0.88146032  0.56564891  0.50806632     0.92630
O1292       O  0.87547003  0.54318961  0.98258246    -0.83470
O1293       O  0.85751952  0.44552042  0.73017370    -0.82930
C1294       C  0.93952646  0.36236838  0.65495934     0.96420
O1295       O  0.93916276  0.35913436  0.68697047    -0.72050
O1296       O  0.94537482  0.43217974  0.70460458    -0.75640
Al1297     Al  0.91766036  0.39311240  0.71619593     1.48980
C1298       C  0.94127003  0.46677244  0.71350846     0.91670
O1299       O  0.88445589  0.47381398  0.64720039    -0.81860
O1300       O  0.82972341  0.38090970  0.65642791    -0.75420
Al1301     Al  0.87152554  0.45736019  0.68783207     1.90120
O1302       O  0.86692916  0.42292806  0.61510278    -0.74490
O1303       O  0.87608319  0.33027489  0.67681630    -0.74340
O1304       O  0.91475460  0.37480178  0.63631998    -0.80000
O1305       O  0.89165390  0.35303058  0.72911813    -0.78200
O1306       O  0.88688064  0.40971795  0.68419460    -1.14340
O1307       O  0.90465843  0.42424452  0.75355206    -0.73530
C1308       C  0.87931658  0.44363955  0.75581022     0.97180
C1309       C  0.87597388  0.45885008  0.61822832     0.93580
Al1310     Al  0.87293393  0.37926979  0.64879750     1.55560
O1311       O  0.91275660  0.48035726  0.71040797    -0.78150
C1312       C  0.88033052  0.32556671  0.70953522     0.97750
C1313       C  0.81391139  0.41193781  0.65603544     0.92630
O1314       O  0.82783905  0.44433032  0.66537995    -0.83470
O1315       O  0.63974775  0.44335836  0.51605389    -0.82930
C1316       C  0.55489078  0.35864163  0.58868967     0.96420
O1317       O  0.55563245  0.35504494  0.55675080    -0.72050
O1318       O  0.55020927  0.42739397  0.53759164    -0.75640
Al1319     Al  0.57838799  0.38893446  0.52783420     1.48980
C1320       C  0.55522426  0.46194215  0.52872041     0.91670
O1321       O  0.61034256  0.47020617  0.59861877    -0.81860
O1322       O  0.66551624  0.37888449  0.58889974    -0.75420
Al1323     Al  0.62437724  0.45451328  0.55787964     1.90120
O1324       O  0.62788420  0.41923736  0.62997423    -0.74490
O1325       O  0.61891198  0.32693282  0.56827644    -0.74340
O1326       O  0.57994283  0.37037295  0.60781796    -0.80000
O1327       O  0.60439297  0.34946840  0.51593694    -0.78200
O1328       O  0.60860402  0.40633546  0.56069560    -1.14340
O1329       O  0.59317030  0.41994332  0.99106353    -0.73530
C1330       C  0.61894188  0.43984133  0.98960586     0.97180
C1331       C  0.61880208  0.45481576  0.62747696     0.93580
Al1332     Al  0.62200326  0.37588636  0.59608143     1.55560
O1333       O  0.58387297  0.47637362  0.53360249    -0.78150
C1334       C  0.61582704  0.32263627  0.53561920     0.97750
C1335       C  0.68138019  0.41057278  0.59051993     0.92630
O1336       O  0.66755482  0.44270239  0.58175046    -0.83470
O1337       O  0.89105799  0.94617032  0.51736481    -0.82930
C1338       C  0.80153479  0.86337674  0.58579605     0.96420
O1339       O  0.80073621  0.86273876  0.55336015    -0.72050
O1340       O  0.80002080  0.93461877  0.53482800    -0.75640
Al1341     Al  0.82621393  0.89476497  0.52503147     1.48980
C1342       C  0.80611305  0.96963846  0.52873414     0.91670
O1343       O  0.85721708  0.97194739  0.59648752    -0.81860
O1344       O  0.91289619  0.88104410  0.58642033    -0.75420
Al1345     Al  0.87359823  0.95753655  0.55734461     1.90120
O1346       O  0.87417559  0.92061620  0.62762267    -0.74490
O1347       O  0.86471225  0.82972332  0.56437998    -0.74340
O1348       O  0.82731143  0.87295684  0.60436361    -0.80000
O1349       O  0.84966750  0.85304757  0.51268967    -0.78200
O1350       O  0.85654778  0.90972168  0.55843716    -1.14340
O1351       O  0.84463304  0.92479455  0.98952937    -0.73530
C1352       C  0.87197696  0.94219533  0.98972584     0.97180
C1353       C  0.86395603  0.95580644  0.62522061     0.93580
Al1354     Al  0.86894781  0.87812026  0.59302787     1.55560
O1355       O  0.83518538  0.98211098  0.53167373    -0.78150
C1356       C  0.85865548  0.82479871  0.53178723     0.97750
C1357       C  0.92892760  0.91259113  0.59137173     0.92630
O1358       O  0.91525083  0.94490430  0.58336719    -0.83470
O1359       O  0.60819800  0.94251742  0.73137195    -0.82930
C1360       C  0.68545234  0.86048968  0.65137127     0.96420
O1361       O  0.68718727  0.85727746  0.68373290    -0.72050
O1362       O  0.69557688  0.92928508  0.70407283    -0.75640
Al1363     Al  0.66740416  0.89019776  0.71512834     1.48980
C1364       C  0.69179290  0.96403814  0.71277912     0.91670
O1365       O  0.63436186  0.97238328  0.64895649    -0.81860
O1366       O  0.57652333  0.88280754  0.65929706    -0.75420
Al1367     Al  0.62186100  0.95588540  0.68946484     1.90120
O1368       O  0.61382364  0.92327837  0.61650442    -0.74490
O1369       O  0.62195123  0.82907982  0.67636601    -0.74340
O1370       O  0.65979139  0.87246299  0.63427243    -0.80000
O1371       O  0.64177284  0.85000257  0.72819380    -0.78200
O1372       O  0.63589708  0.90801258  0.68445406    -1.14340
O1373       O  0.65539685  0.92033908  0.75383261    -0.73530
C1374       C  0.62990184  0.93923352  0.75688329     0.97180
C1375       C  0.62428192  0.95872991  0.61983801     0.93580
Al1376     Al  0.61927799  0.87872825  0.64922338     1.55560
O1377       O  0.66341470  0.97736694  0.71153640    -0.78150
C1378       C  0.62786933  0.82375916  0.70893987     0.97750
C1379       C  0.56221654  0.91510775  0.65838795     0.92630
O1380       O  0.57800232  0.94615183  0.66756347    -0.83470
O1381       O  0.58079043  0.05910857  0.91047505    -0.82930
C1382       C  0.69322374  0.14454976  0.90984897     0.96420
O1383       O  0.66811494  0.13453456  0.88994256    -0.72050
O1384       O  0.62156263  0.08518958  0.86583786    -0.75640
Al1385     Al  0.62565554  0.12776895  0.90033660     1.48980
C1386       C  0.63164350  0.05000625  0.86824683     0.91670
O1387       O  0.66172091  0.02535963  0.96186893    -0.81860
O1388       O  0.64972863  0.08195392  0.50449966    -0.75420
Al1389     Al  0.62275336  0.04812525  0.93632156     1.90120
O1390       O  0.69562406  0.07474591  0.96080625    -0.74490
O1391       O  0.64150785  0.15297403  0.98077476    -0.74340
O1392       O  0.69217432  0.14654634  0.94190697    -0.80000
O1393       O  0.62759117  0.17607453  0.92863680    -0.78200
O1394       O  0.63831865  0.09661926  0.93537357    -1.14340
O1395       O  0.58158475  0.12326178  0.90643928    -0.73530
C1396       C  0.56631312  0.09103679  0.90338432     0.97180
C1397       C  0.69038173  0.03920100  0.96576873     0.93580
Al1398     Al  0.66736673  0.11306569  0.96947536     1.55560
O1399       O  0.63972100  0.03482970  0.89721866    -0.78150
C1400       C  0.63040855  0.18005167  0.96125688     0.97750
C1401       C  0.62327160  0.06265159  0.50422485     0.92630
O1402       O  0.60465231  0.05784098  0.97644218    -0.83470
O1403       O  0.91963750  0.06288384  0.82827657    -0.82930
C1404       C  0.80841918  0.14379746  0.84185069     0.96420
O1405       O  0.83414235  0.13272957  0.85967384    -0.72050
O1406       O  0.88255609  0.08510641  0.87940078    -0.75640
Al1407     Al  0.87543742  0.12830951  0.84570449     1.48980
C1408       C  0.87412968  0.04899318  0.87693805     0.91670
O1409       O  0.83482399  0.02629026  0.78578754    -0.81860
O1410       O  0.84170359  0.08244899  0.74154906    -0.75420
Al1411     Al  0.87591164  0.05010071  0.80705979     1.90120
O1412       O  0.80166440  0.07401857  0.79120199    -0.74490
O1413       O  0.85391372  0.15415329  0.76568844    -0.74340
O1414       O  0.80755761  0.14669982  0.80958069    -0.80000
O1415       O  0.87130321  0.17699530  0.81755612    -0.78200
O1416       O  0.86048429  0.09754043  0.81076974    -1.14340
O1417       O  0.91860740  0.12635605  0.83680485    -0.73530
C1418       C  0.93410618  0.09494065  0.83722970     0.97180
C1419       C  0.80617484  0.03901032  0.78383532     0.93580
Al1420     Al  0.82884793  0.11346773  0.77935142     1.55560
O1421       O  0.86395477  0.03440814  0.84812975    -0.78150
C1422       C  0.86590328  0.18161172  0.78488306     0.97750
C1423       C  0.86728165  0.06343072  0.73901803     0.92630
O1424       O  0.88910446  0.06188574  0.76448615    -0.83470
C1425       C  0.72127487  0.16043366  0.85926794    -0.10290
C1426       C  0.72376654  0.15199386  0.89466413     0.05900
C1427       C  0.75500415  0.14547726  0.91282719    -0.04060
C1428       C  0.78206020  0.14525156  0.89527643    -0.08510
C1429       C  0.77932012  0.15122949  0.85942608     0.05020
C1430       C  0.74833313  0.16021652  0.84168405    -0.03530
Br1431     Br  0.74030923  0.17092288  0.79327567    -0.03230
H1432       H  0.69770579  0.16592637  0.84467157     0.08930
H1433       H  0.80538298  0.13856357  0.90986136     0.06950
Br1434     Br  0.76268467  0.13314752  0.96094296    -0.03660
C1435       C  0.97683814  0.11233768  0.88535637    -0.10290
C1436       C  0.96844822  0.09497943  0.85280895     0.05900
C1437       C  0.99237588  0.07560066  0.83774607    -0.04060
C1438       C  0.52380561  0.07303065  0.85552369    -0.08510
C1439       C  0.53214071  0.09056454  0.88785908     0.05020
C1440       C  0.50845552  0.11039955  0.90282596    -0.03530
Br1441     Br  0.51796136  0.13335975  0.94769005    -0.03230
H1442       H  0.95852579  0.12677102  0.89758113     0.08930
H1443       H  0.54215491  0.05839387  0.84354742     0.06950
Br1444     Br  0.98432237  0.05571317  0.79186480    -0.03660
C1445       C  0.74695478  0.03246431  0.77039904    -0.10290
C1446       C  0.77747580  0.01625285  0.76841006     0.05900
C1447       C  0.77940061  0.98393053  0.74661654    -0.04060
C1448       C  0.75125798  0.96928064  0.72714288    -0.08510
C1449       C  0.72077882  0.98580708  0.72890815     0.05020
C1450       C  0.71894076  0.01822322  0.75060567    -0.03530
Br1451     Br  0.67970421  0.04529146  0.75491673    -0.03230
H1452       H  0.74482862  0.05756261  0.78674891     0.08930
H1453       H  0.75330719  0.94415561  0.71080442     0.06950
Br1454     Br  0.81908453  0.95840305  0.74122213    -0.03660
C1455       C  0.61089236  0.00006691  0.78131458    -0.10290
C1456       C  0.62851188  0.96508650  0.78682511     0.05900
C1457       C  0.64805094  0.95956485  0.81859830    -0.04060
C1458       C  0.64977707  0.98864792  0.84374123    -0.08510
C1459       C  0.63226707  0.02378569  0.83827011     0.05020
C1460       C  0.61293693  0.02945288  0.80629894    -0.03530
Br1461     Br  0.58896240  0.07628423  0.79447768    -0.03230
H1462       H  0.59637487  0.00558833  0.75669701     0.08930
H1463       H  0.66473078  0.98326265  0.86814139     0.06950
Br1464     Br  0.67189077  0.91248461  0.82992003    -0.03660
C1465       C  0.63706754  0.04900260  0.56611463    -0.10290
C1466       C  0.61731079  0.04026818  0.53514816     0.05900
C1467       C  0.59798325  0.00541597  0.53311655    -0.04060
C1468       C  0.60117116  0.97896562  0.56061236    -0.08510
C1469       C  0.62280259  0.98646025  0.59061316     0.05020
C1470       C  0.64033143  0.02269497  0.59346803    -0.03530
Br1471     Br  0.67159851  0.03801797  0.63231424    -0.03230
H1472       H  0.65191812  0.07550774  0.56835711     0.08930
H1473       H  0.58654234  0.95229165  0.55848306     0.06950
Br1474     Br  0.56777523  0.99016574  0.49356997    -0.03660
C1475       C  0.74915175  0.98425646  0.52786603    -0.10290
C1476       C  0.77818490  0.99289114  0.51504773     0.05900
C1477       C  0.77719529  0.01378502  0.98411541    -0.04060
C1478       C  0.74753577  0.02534769  0.96663512    -0.08510
C1479       C  0.71857579  0.01652849  0.97941269     0.05020
C1480       C  0.71947606  0.99520130  0.51006173    -0.03530
Br1481     Br  0.68159508  0.98022642  0.52928398    -0.03230
H1482       H  0.74948345  0.96712556  0.55117601     0.08930
H1483       H  0.74707645  0.04232081  0.94322920     0.06950
Br1484     Br  0.81463805  0.02597112  0.96322811    -0.03660
C1485       C  0.89393592  0.00239070  0.96575985    -0.10290
C1486       C  0.87878459  0.96527418  0.95975852     0.05900
C1487       C  0.86523202  0.95510047  0.92625586    -0.04060
C1488       C  0.86431271  0.98289800  0.90018629    -0.08510
C1489       C  0.87690119  0.02140669  0.90650056     0.05020
C1490       C  0.89290752  0.03052634  0.93965861    -0.03530
Br1491     Br  0.91253748  0.08077888  0.95179837    -0.03230
H1492       H  0.90459997  0.01077531  0.99153961     0.08930
H1493       H  0.85298524  0.97410998  0.87475942     0.06950
Br1494     Br  0.84788690  0.90364556  0.91462459    -0.03660
C1495       C  0.88719336  0.97782733  0.68344922    -0.10290
C1496       C  0.86270121  0.98080230  0.65549900     0.05900
C1497       C  0.84055099  0.01188428  0.65457491    -0.04060
C1498       C  0.84384110  0.03966294  0.68094396    -0.08510
C1499       C  0.86861273  0.03716872  0.70904614     0.05020
C1500       C  0.89035426  0.00524598  0.71010815    -0.03530
Br1501     Br  0.92419423  0.99444681  0.74715711    -0.03230
H1502       H  0.90454806  0.95442601  0.68420410     0.08930
H1503       H  0.82620895  0.06275893  0.67984803     0.06950
Br1504     Br  0.80419605  0.01717306  0.61885119    -0.03660
C1505       C  0.74148882  0.85285843  0.58250823    -0.10290
C1506       C  0.77211858  0.85525147  0.60265672     0.05900
C1507       C  0.77349440  0.85394815  0.63903776    -0.04060
C1508       C  0.74496910  0.85296242  0.65390825    -0.08510
C1509       C  0.71436809  0.85336093  0.63383869     0.05020
C1510       C  0.71288537  0.85185660  0.59754906    -0.03530
Br1511     Br  0.67290529  0.84889327  0.56650208    -0.03230
H1512       H  0.73961220  0.85331746  0.55474391     0.08930
H1513       H  0.74690874  0.85384530  0.68167555     0.06950
Br1514     Br  0.81294774  0.85495577  0.67120201    -0.03660
C1515       C  0.98258089  0.94598260  0.60638831    -0.10290
C1516       C  0.96308254  0.91240120  0.60864862     0.05900
C1517       C  0.97606674  0.88091261  0.62955142    -0.04060
C1518       C  0.50793335  0.88319527  0.64639880    -0.08510
C1519       C  0.52749371  0.91650449  0.64368484     0.05020
C1520       C  0.51435977  0.94835446  0.62353266    -0.03530
Br1521     Br  0.53873448  0.99504848  0.61610779    -0.03230
H1522       H  0.97316831  0.97061379  0.59084642     0.08930
H1523       H  0.51757215  0.85854117  0.66178601     0.06950
Br1524     Br  0.95192454  0.83438508  0.63811145    -0.03660
C1525       C  0.60957447  0.25036705  0.52910018    -0.10290
C1526       C  0.62274029  0.28561744  0.51872857     0.05900
C1527       C  0.63655631  0.28627372  0.98784558    -0.04060
C1528       C  0.63676202  0.25225541  0.96796234    -0.08510
C1529       C  0.62357737  0.21700398  0.97831037     0.05020
C1530       C  0.60983191  0.21632025  0.50924990    -0.03530
Br1531     Br  0.58984140  0.16988714  0.52501041    -0.03230
H1532       H  0.59784298  0.24965104  0.55195780     0.08930
H1533       H  0.64849467  0.25298813  0.94510529     0.06950
Br1534     Br  0.65676070  0.33265844  0.97227347    -0.03660
C1535       C  0.86529955  0.28944466  0.76002584    -0.10290
C1536       C  0.87420850  0.28789045  0.72673362     0.05900
C1537       C  0.88188723  0.25130285  0.71386551    -0.04060
C1538       C  0.88044365  0.21757477  0.73406078    -0.08510
C1539       C  0.87167149  0.21918453  0.76739961     0.05020
C1540       C  0.86392098  0.25573916  0.78023276    -0.03530
Br1541     Br  0.84934377  0.26123647  0.82406646    -0.03230
H1542       H  0.85951201  0.31733937  0.77060134     0.08930
H1543       H  0.88620079  0.18965208  0.72351600     0.06950
Br1544     Br  0.89651195  0.24575648  0.67006213    -0.03660
C1545       C  0.72222077  0.41287369  0.64273565    -0.10290
C1546       C  0.71541373  0.41012770  0.60675645     0.05900
C1547       C  0.74088347  0.40388667  0.58782676    -0.04060
C1548       C  0.77272658  0.40292564  0.60482820    -0.08510
C1549       C  0.77974906  0.41047888  0.64027611     0.05020
C1550       C  0.75419929  0.41462508  0.65947216    -0.03530
Br1551     Br  0.76198477  0.42081960  0.70841336    -0.03230
H1552       H  0.70252553  0.41389795  0.65785786     0.08930
H1553       H  0.79225918  0.39744384  0.59011908     0.06950
Br1554     Br  0.73315216  0.39571231  0.53915513    -0.03660
C1555       C  0.96609691  0.35361148  0.60252640    -0.10290
C1556       C  0.96892992  0.35344418  0.63869196     0.05900
C1557       C  0.50019376  0.34911918  0.65759297    -0.04060
C1558       C  0.52739914  0.34805193  0.64039430    -0.08510
C1559       C  0.52472051  0.35125320  0.60435324     0.05020
C1560       C  0.99329752  0.35264262  0.58535107    -0.03530
Br1561     Br  0.98517631  0.35672962  0.53616360    -0.03230
H1562       H  0.94246727  0.35630107  0.58722344     0.08930
H1563       H  0.55113142  0.34640930  0.65566961     0.06950
Br1564     Br  0.50845744  0.34720845  0.70690023    -0.03660
C1565       C  0.85079843  0.74275329  0.96453134    -0.10290
C1566       C  0.87302308  0.71565351  0.98012381     0.05900
C1567       C  0.88780305  0.72310003  0.51465921    -0.04060
C1568       C  0.88217797  0.75810953  0.53117063    -0.08510
C1569       C  0.86153379  0.78623397  0.51477134     0.05020
C1570       C  0.84462914  0.77739353  0.98143797    -0.03530
Br1571     Br  0.81152911  0.80986091  0.95736395    -0.03230
H1572       H  0.83839651  0.73728356  0.93878027     0.08930
H1573       H  0.89455732  0.76364557  0.55692865     0.06950
Br1574     Br  0.91542986  0.68718991  0.54245488    -0.03660
C1575       C  0.86368953  0.50806972  0.77759427    -0.10290
C1576       C  0.87903053  0.47170719  0.78454402     0.05900
C1577       C  0.89795750  0.46619403  0.81675498    -0.04060
C1578       C  0.90131232  0.49649170  0.84090779    -0.08510
C1579       C  0.88582365  0.53262305  0.83406544     0.05020
C1580       C  0.86696325  0.53833104  0.80199891    -0.03530
Br1581     Br  0.84382029  0.58588319  0.79126644    -0.03230
H1582       H  0.84955134  0.51343021  0.75273988     0.08930
H1583       H  0.91484975  0.49107467  0.86610403     0.06950
Br1584     Br  0.91767706  0.41706196  0.83036762    -0.03660
C1585       C  0.84927509  0.52914816  0.54535200    -0.10290
C1586       C  0.87876676  0.54756271  0.54139257     0.05900
C1587       C  0.90708026  0.53632129  0.56297321    -0.04060
C1588       C  0.90578331  0.50547263  0.58620048    -0.08510
C1589       C  0.87653042  0.48566155  0.58893400     0.05020
C1590       C  0.84786248  0.49926835  0.56949310    -0.03530
Br1591     Br  0.80598548  0.48074182  0.57646495    -0.03230
H1592       H  0.82735069  0.53724316  0.52873096     0.08930
H1593       H  0.92777767  0.49709149  0.60256886     0.06950
Br1594     Br  0.94859660  0.56019476  0.56049449    -0.03660
C1595       C  0.00038001  0.53876384  0.48339518    -0.10290
C1596       C  0.97345712  0.51553240  0.96905805     0.05900
C1597       C  0.97560729  0.47472901  0.97084290    -0.04060
C1598       C  0.50287431  0.45820676  0.98995802    -0.08510
C1599       C  0.52807572  0.48176655  0.50776876     0.05020
C1600       C  0.52713461  0.52247138  0.50327510    -0.03530
Br1601     Br  0.55940826  0.55776456  0.52635568    -0.03230
H1602       H  0.99940875  0.57042829  0.48163844     0.08930
H1603       H  0.50393914  0.42655405  0.99144670     0.06950
Br1604     Br  0.94145064  0.44052513  0.95008071    -0.03660
C1605       C  0.63018278  0.75073850  0.71239506    -0.10290
C1606       C  0.62144062  0.78620312  0.72610983     0.05900
C1607       C  0.61287216  0.78613459  0.75974814    -0.04060
C1608       C  0.61391005  0.75149727  0.77905989    -0.08510
C1609       C  0.62292191  0.71610090  0.76552265     0.05020
C1610       C  0.63094477  0.71595614  0.73165024    -0.03530
Br1611     Br  0.64475246  0.66940839  0.71084287    -0.03230
H1612       H  0.63780355  0.75034060  0.68719629     0.08930
H1613       H  0.60641446  0.75197961  0.80432009     0.06950
Br1614     Br  0.59828800  0.83238392  0.78040103    -0.03660
C1615       C  0.59189557  0.48498678  0.94577712    -0.10290
C1616       C  0.62067529  0.46678709  0.96034649     0.05900
C1617       C  0.65032834  0.48017771  0.95087934    -0.04300
C1618       C  0.65069344  0.51099633  0.92729613    -0.08510
C1619       C  0.62188984  0.52909029  0.91309287     0.05020
C1620       C  0.59234854  0.51583671  0.92247561    -0.03530
Br1621     Br  0.55199290  0.53905919  0.90370613    -0.03230
H1622       H  0.56888013  0.47594986  0.95322847     0.08930
H1623       H  0.67336810  0.51965536  0.91877634     0.06950
Br1624     Br  0.69059657  0.45566413  0.96733713    -0.03660
C1625       C  0.58804269  0.49287461  0.66481056    -0.10290
C1626       C  0.61812158  0.47999488  0.65785403     0.05900
C1627       C  0.64638639  0.49816484  0.67520749    -0.04060
C1628       C  0.64442382  0.52444170  0.70207002    -0.08510
C1629       C  0.61436731  0.53628799  0.71008757     0.05020
C1630       C  0.58585509  0.52152582  0.68980846    -0.03530
Br1631     Br  0.54309665  0.53938470  0.69348579    -0.03230
H1632       H  0.56602763  0.48153858  0.64974291     0.08930
H1633       H  0.66659048  0.53669180  0.71611139     0.06950
Br1634     Br  0.68760934  0.49344155  0.66018130    -0.03660
C1635       C  0.72721990  0.60513218  0.88983364    -0.10290
C1636       C  0.71856575  0.58796066  0.85715607     0.05900
C1637       C  0.74220297  0.56713294  0.84274157    -0.04060
C1638       C  0.77391650  0.56489552  0.86042317    -0.08510
C1639       C  0.78255445  0.58229837  0.89295435     0.05020
C1640       C  0.75879363  0.60228624  0.90772782    -0.03530
Br1641     Br  0.76884932  0.62699598  0.95178888    -0.03230
H1642       H  0.70920360  0.62058901  0.90167151     0.08930
H1643       H  0.79223119  0.55041093  0.84826365     0.06950
Br1644     Br  0.73293326  0.54384029  0.79798327    -0.03660
C1645       C  0.53480303  0.65533272  0.89647142    -0.10290
C1646       C  0.53086731  0.65460682  0.86028023     0.05900
C1647       C  0.99888712  0.65590023  0.84230525    -0.04060
C1648       C  0.97226980  0.65492873  0.86051475    -0.08510
C1649       C  0.97639691  0.65255496  0.89658539     0.05020
C1650       C  0.50821868  0.65434209  0.91455575    -0.03530
Br1651     Br  0.51732498  0.65565299  0.96383339    -0.03230
H1652       H  0.55889276  0.65523531  0.91109286     0.08930
H1653       H  0.94806656  0.65382539  0.84613472     0.06950
Br1654     Br  0.98899824  0.65633582  0.79306511    -0.03660
C1655       C  0.49453715  0.53750562  0.77147300    -0.10290
C1656       C  0.52421683  0.51755498  0.77605596     0.05900
C1657       C  0.52581005  0.48079674  0.76029818    -0.04060
C1658       C  0.99889768  0.46642220  0.73875395    -0.08510
C1659       C  0.96962257  0.48720189  0.73281118     0.05020
C1660       C  0.96758933  0.52312909  0.74981226    -0.03530
Br1661     Br  0.92981207  0.55526717  0.74408706    -0.03230
H1662       H  0.49254552  0.56572063  0.78349817     0.08930
H1663       H  0.00110192  0.43824213  0.72674146     0.06950
Br1664     Br  0.56374521  0.44878514  0.76541718    -0.03660
loop_ 
_geom_bond_atom_site_label_1 
_geom_bond_atom_site_label_2 
_geom_bond_distance 
_geom_bond_site_symmetry_2 
_ccdc_geom_bond_type 
O1           C16   1.268       .  A
O1           Al9   1.944       .  S
C2           O12   1.262       .  A
C2            O3   1.257       .  A
C2          C398   1.499       .  S
O3           Al5   1.894       .  S
O4            C6   1.272       .  A
O4           Al5   1.962       .  S
Al5          O13   1.992       .  S
Al5          O15   1.898       .  S
Al5          O14   1.771       .  S
C6           O19   1.254       .  A
C6          C371   1.465       .  S
O7           C17   1.269       .  A
O7           Al9   1.949       .  S
O8           C21   1.267       .  A
O8          Al18   1.944       .  S
Al9          O22   1.899       .  S
Al9          O19   1.854       .  S
Al9          O14   1.773       .  S
O10          C17   1.253       .  A
O10         Al18   1.858       .  S
O11          C20   1.256       .  A
O11         Al18   1.854       .  S
O12         Al18   1.937       .  S
O13          C20   1.283       .  A
O14         Al18   1.773       .  S
O15          C16   1.264       .  A
C16         C388   1.489       .  S
C17         C408   1.474       .  S
C20         C361   1.487       .  S
C21          O22   1.265       .  A
C21         C381   1.487       .  S
O23          C38   1.270       .  A
O23         Al31   1.935       .  S
C24          O34   1.259       .  A
C24          O25   1.265       .  A
C24         C401   1.492       .  S
O25         Al27   1.931       .  S
O26          C28   1.269       .  A
O26         Al27   1.950       .  S
Al27         O35   1.963       .  S
Al27         O37   1.901       .  S
Al27         O36   1.787       .  S
C28          O41   1.248       .  A
C28         C331   1.473       .  S
O29          C39   1.265       .  A
O29         Al31   1.948       .  S
O30          C43   1.268       .  A
O30        Al456   1.922   1_554  S
Al31         O44   1.874       .  S
Al31         O41   1.841       .  S
Al31         O36   1.787       .  S
O32          C39   1.244       .  A
O32         Al40   1.825       .  S
O33          C42   1.246       .  A
O33         Al40   1.860       .  S
O34         Al40   1.895       .  S
O35          C42   1.272       .  A
O36         Al40   1.790       .  S
O37          C38   1.260       .  A
C38         C391   1.483       .  S
C39         C348   1.471       .  S
Al40        O446   1.922       .  S
C42         C318   1.496       .  S
C43         O460   1.257   1_554  A
C43         C338   1.466       .  S
O44         C459   1.257       .  A
O45          C60   1.259       .  A
O45         Al53   1.884       .  S
C46          O56   1.257       .  A
C46          O47   1.266       .  A
C46         C308   1.499       .  S
O47         Al49   1.951       .  S
O48          C50   1.253       .  A
O48         Al49   1.850       .  S
Al49         O57   1.848       .  S
Al49         O59   1.958       .  S
Al49         O58   1.763       .  S
C50          O63   1.273       .  A
C50         C411   1.476       .  S
O51          C61   1.251       .  A
O51         Al53   1.843       .  S
O52          C65   1.255       .  A
O52         Al62   1.872       .  S
Al53         O66   1.953       .  S
Al53         O63   1.971       .  S
Al53         O58   1.771       .  S
O54          C61   1.278       .  A
O54         Al62   1.987       .  S
O55          C64   1.284       .  A
O55         Al62   1.997       .  S
O56         Al62   1.888       .  S
O57          C64   1.256       .  A
O58         Al62   1.763       .  S
O59          C60   1.270       .  A
C60         C328   1.484       .  S
C61         C341   1.473       .  S
C64         C288   1.488       .  S
C65          O66   1.271       .  A
C65         C301   1.470       .  S
O67         C498   1.260   1_554  A
O67         Al75   1.891       .  S
C68          O78   1.257       .  A
C68          O69   1.267       .  A
C68         C311   1.497       .  S
O69         Al71   1.950       .  S
O70          C72   1.252       .  A
O70         Al71   1.853       .  S
Al71         O79   1.845       .  S
Al71        O497   1.955   1_554  S
Al71         O80   1.767       .  S
C72          O85   1.274       .  A
C72         C351   1.474       .  S
O73          C83   1.256       .  A
O73         Al75   1.865       .  S
O74          C87   1.256       .  A
O74         Al84   1.878       .  S
Al75         O88   1.956       .  S
Al75         O85   1.974       .  S
Al75         O80   1.771       .  S
O76          C83   1.277       .  A
O76         Al84   1.982       .  S
O77          C86   1.281       .  A
O77         Al84   1.991       .  S
O78         Al84   1.884       .  S
O79          C86   1.253       .  A
O80         Al84   1.766       .  S
O81          C82   1.271       .  A
O81        Al487   1.955       .  S
C82         O483   1.260       .  A
C82         C368   1.481       .  S
C83         C378   1.477       .  S
C86         C278   1.480       .  S
C87          O88   1.271       .  A
C87         C298   1.471       .  S
O89         C520   1.258   1_554  A
O89         Al97   1.869       .  S
C90         O100   1.249       .  A
C90          O91   1.271       .  A
C90         C258   1.499       .  S
O91         Al93   1.966       .  S
O92          C94   1.248       .  A
O92         Al93   1.834       .  S
Al93        O101   1.845       .  S
Al93        O519   1.967   1_554  S
Al93        O102   1.758       .  S
C94         O107   1.269       .  A
C94         C228   1.458       .  S
O95         C105   1.253       .  A
O95         Al97   1.842       .  S
O96         C109   1.259       .  A
O96        Al106   1.890       .  S
Al97        O110   1.940       .  S
Al97        O107   1.966       .  S
Al97        O102   1.773       .  S
O98         C105   1.280       .  A
O98        Al106   1.978       .  S
O99         C108   1.281       .  A
O99        Al106   1.992       .  S
O100       Al106   1.860       .  S
O101        C108   1.250       .  A
O102       Al106   1.758       .  S
O103        C104   1.277       .  A
O103       Al509   1.967       .  S
C104        O505   1.258       .  A
C104        C238   1.475       .  S
C105        C248   1.473       .  S
C108        C321   1.492       .  S
C109        O110   1.268       .  A
C109        C268   1.488       .  S
O111        C126   1.257       .  A
O111       Al119   1.873       .  S
C112        O122   1.253       .  A
C112        O113   1.269       .  A
C112        C261   1.496       .  S
O113       Al115   1.948       .  S
O114        C116   1.254       .  A
O114       Al115   1.856       .  S
Al115       O123   1.844       .  S
Al115       O125   1.966       .  S
Al115       O124   1.766       .  S
C116        O129   1.269       .  A
C116        C201   1.473       .  S
O117        C127   1.250       .  A
O117       Al119   1.831       .  S
O118        C131   1.260       .  A
O118       Al128   1.889       .  S
Al119       O132   1.931       .  S
Al119       O129   1.956       .  S
Al119       O124   1.765       .  S
O120        C127   1.280       .  A
O120       Al128   1.985       .  S
O121        C130   1.282       .  A
O121       Al128   1.997       .  S
O122       Al128   1.883       .  S
O123        C130   1.254       .  A
O124       Al128   1.762       .  S
O125        C126   1.273       .  A
C126        C208   1.481       .  S
C127        C221   1.483       .  S
C130        C358   1.486       .  S
C131        O132   1.264       .  A
C131        C271   1.482       .  S
O133        C148   1.265       .  A
O133       Al141   1.936       .  S
C134        O144   1.270       .  A
C134        O135   1.257       .  A
C134        C178   1.501       .  S
O135       Al137   1.885       .  S
O136        C138   1.277       .  A
O136       Al137   1.978       .  S
Al137       O145   1.985       .  S
Al137       O147   1.892       .  S
Al137       O146   1.764       .  S
C138        O151   1.254       .  A
C138        C211   1.485       .  S
O139        C149   1.267       .  A
O139       Al141   1.955       .  S
O140        C153   1.275       .  A
O140       Al566   1.957   1_554  S
Al141       O154   1.877       .  S
Al141       O151   1.843       .  S
Al141       O146   1.771       .  S
O142        C149   1.249       .  A
O142       Al150   1.839       .  S
O143        C152   1.252       .  A
O143       Al150   1.845       .  S
O144       Al150   1.958       .  S
O145        C152   1.279       .  A
O146       Al150   1.759       .  S
O147        C148   1.260       .  A
C148        C191   1.468       .  S
C149        C231   1.455       .  S
Al150       O556   1.957       .  S
C152        C281   1.480       .  S
C153        O570   1.256   1_554  A
C153        C218   1.484       .  S
O154        C569   1.256       .  A
O155        C170   1.267       .  A
O155       Al163   1.937       .  S
C156        O166   1.268       .  A
C156        O157   1.258       .  A
C156        C181   1.506       .  S
O157       Al159   1.891       .  S
O158        C160   1.276       .  A
O158       Al159   1.978       .  S
Al159       O167   1.991       .  S
Al159       O169   1.886       .  S
Al159       O168   1.766       .  S
C160        O173   1.252       .  A
C160        C241   1.488       .  S
O161        C171   1.270       .  A
O161       Al163   1.961       .  S
O162        C175   1.274       .  A
O162       Al172   1.968       .  S
Al163       O176   1.877       .  S
Al163       O173   1.834       .  S
Al163       O168   1.766       .  S
O164        C171   1.253       .  A
O164       Al172   1.849       .  S
O165        C174   1.256       .  A
O165       Al172   1.850       .  S
O166       Al172   1.957       .  S
O167        C174   1.282       .  A
O168       Al172   1.765       .  S
O169        C170   1.260       .  A
C170        C188   1.475       .  S
C171        C198   1.473       .  S
C174        C291   1.487       .  S
C175        O176   1.255       .  A
C175        C251   1.490       .  S
C177        C178   1.410       .  A
C177        C182   1.406       .  A
C177        H184   1.084       .  S
C178        C179   1.414       .  A
C179        C180   1.405       .  A
C179       Br186   1.920       .  S
C180        C181   1.413       .  A
C180        H185   1.084       .  S
C181        C182   1.416       .  A
C182       Br183   1.920       .  S
C187        C188   1.407       .  A
C187       C1024   1.399       .  A
C187        H194   1.084       .  S
C188        C189   1.406       .  A
C189       C1022   1.398       .  A
C189       Br196   1.911       .  S
C190        C191   1.402       .  A
C190       C1021   1.398   1_455  A
C190        H195   1.084       .  S
C191        C192   1.404       .  A
C192       C1019   1.399   1_455  A
C192       Br193   1.918       .  S
C197        C198   1.409       .  A
C197        C202   1.389       .  A
C197        H204   1.084       .  S
C198        C199   1.408   1_545  A
C199        C200   1.393       .  A
C199       Br206   1.922       .  S
C200        C201   1.410       .  A
C200        H205   1.084       .  S
C201        C202   1.408   1_565  A
C202       Br203   1.921       .  S
C207        C208   1.412   1_545  A
C207        C212   1.398       .  A
C207        H214   1.083       .  S
C208        C209   1.404       .  A
C209        C210   1.396       .  A
C209       Br216   1.921       .  S
C210        C211   1.414   1_565  A
C210        H215   1.084       .  S
C211        C212   1.407       .  A
C212       Br213   1.920       .  S
C217        C218   1.399       .  A
C217        C222   1.393       .  A
C217        H224   1.085       .  S
C218        C219   1.422       .  A
C219        C220   1.400   1_545  A
C219       Br226   1.923   1_544  S
C220        C221   1.400       .  A
C220        H225   1.085       .  S
C221        C222   1.423   1_565  A
C222       Br223   1.928       .  S
C227        C228   1.404       .  A
C227        C232   1.388       .  A
C227        H234   1.085       .  S
C228        C645   1.405   1_564  A
C229        C230   1.389       .  A
C229        C644   1.405   1_545  A
C229       Br236   1.907       .  S
C230        C231   1.402       .  A
C230        H235   1.085       .  S
C231        C648   1.403   1_545  A
C232        C647   1.403   1_564  A
C232       Br233   1.910       .  S
C237        C238   1.412   1_545  A
C237        C242   1.401       .  A
C237        H244   1.084       .  S
C238        C239   1.399       .  A
C239        C240   1.393       .  A
C239       Br246   1.919       .  S
C240        C241   1.417   1_565  A
C240        H245   1.083       .  S
C241        C242   1.410       .  A
C242       Br243   1.920       .  S
C247        C248   1.394       .  A
C247        C252   1.397   1_565  A
C247        H254   1.084       .  S
C248        C249   1.415   1_565  A
C249        C250   1.397       .  A
C249       Br256   1.924       .  S
C250        C251   1.404       .  A
C250        H255   1.083       .  S
C251        C252   1.425       .  A
C252       Br253   1.917   1_545  S
C257        C258   1.405       .  A
C257        C262   1.406       .  A
C257        H264   1.084       .  S
C258        C259   1.424       .  A
C259        C260   1.400       .  A
C259       Br266   1.926       .  S
C260        C261   1.401       .  A
C260        H265   1.084       .  S
C261        C262   1.421       .  A
C262       Br263   1.922       .  S
C267        C268   1.405       .  A
C267       C1104   1.400       .  A
C267        H274   1.084       .  S
C268        C269   1.418       .  A
C269       C1102   1.399       .  A
C269       Br276   1.922       .  S
C270        C271   1.402       .  A
C270       C1101   1.399   1_455  A
C270        H275   1.084       .  S
C271        C272   1.415       .  A
C272       C1099   1.400   1_455  A
C272       Br273   1.922       .  S
C277        C278   1.399       .  A
C277        C282   1.402       .  A
C277        H284   1.084       .  S
C278        C695   1.417   1_554  A
C279        C280   1.402       .  A
C279        C694   1.417       .  A
C279       Br286   1.922       .  S
C280        C281   1.399       .  A
C280        H285   1.084       .  S
C281        C698   1.418       .  A
C282        C697   1.418   1_554  A
C282       Br283   1.922       .  S
C287        C288   1.413       .  A
C287        C292   1.402       .  A
C287        H294   1.084       .  S
C288        C289   1.407       .  A
C289        C290   1.403       .  A
C289       Br296   1.919       .  S
C290        C291   1.412       .  A
C290        H295   1.084       .  S
C291        C292   1.406       .  A
C292       Br293   1.919       .  S
C297        C298   1.406       .  A
C297        C302   1.401       .  A
C297        H304   1.083       .  S
C298        C299   1.402       .  A
C299        C300   1.400       .  A
C299       Br306   1.915       .  S
C300        C301   1.406       .  A
C300        H305   1.084       .  S
C301        C302   1.401       .  A
C302       Br303   1.917       .  S
C307        C308   1.410       .  A
C307        C312   1.403       .  A
C307        H314   1.084       .  S
C308       C1141   1.415       .  A
C309        C310   1.403       .  A
C309       C1140   1.415   1_455  A
C309       Br316   1.921       .  S
C310        C311   1.410       .  A
C310        H315   1.084       .  S
C311       C1144   1.414   1_455  A
C312       C1143   1.414       .  A
C312       Br313   1.920       .  S
C317        C318   1.397       .  A
C317        C322   1.403       .  A
C317        H324   1.084       .  S
C318        C735   1.430       .  A
C319        C320   1.400       .  A
C319        C734   1.430   1_554  A
C319       Br326   1.924       .  S
C320        C321   1.394       .  A
C320        H325   1.084       .  S
C321        C738   1.427   1_554  A
C322        C737   1.427       .  A
C322       Br323   1.924       .  S
C327        C328   1.414       .  A
C327        C332   1.403       .  A
C327        H334   1.083       .  S
C328        C329   1.407       .  A
C329        C330   1.397       .  A
C329       Br336   1.921       .  S
C330        C331   1.409       .  A
C330        H335   1.085       .  S
C331        C332   1.402       .  A
C332       Br333   1.917       .  S
C337        C338   1.401       .  A
C337        C342   1.399       .  A
C337        H344   1.084       .  S
C338        C339   1.410       .  A
C339        C340   1.398       .  A
C339       Br346   1.918       .  S
C340        C341   1.404       .  A
C340        H345   1.084       .  S
C341        C342   1.409       .  A
C342       Br343   1.905       .  S
C347        C764   1.414       .  A
C347       C1184   1.391   1_556  A
C347        H354   1.084       .  S
C348        C349   1.398       .  A
C348        C763   1.414       .  A
C349       C1182   1.396       .  A
C349       Br356   1.917       .  S
C350       C1181   1.396   1_455  A
C350        C767   1.416       .  A
C350        H355   1.083       .  S
C351        C352   1.401       .  A
C351        C766   1.416   1_554  A
C352       C1179   1.391   1_554  A
C352       Br353   1.921       .  S
C357        C358   1.401       .  A
C357        C362   1.405       .  A
C357        H364   1.084       .  S
C358        C359   1.419       .  A
C359        C360   1.402       .  A
C359       Br366   1.923       .  S
C360        C361   1.399       .  A
C360        H365   1.084       .  S
C361        C362   1.420       .  A
C362       Br363   1.922       .  S
C367        C368   1.407       .  A
C367        C372   1.396       .  A
C367        H374   1.084       .  S
C368        C369   1.412       .  A
C369        C370   1.403       .  A
C369       Br376   1.916       .  S
C370        C371   1.402       .  A
C370        H375   1.085       .  S
C371        C372   1.405       .  A
C372       Br373   1.921       .  S
C377        C378   1.400       .  A
C377        C382   1.401       .  A
C377        H384   1.085       .  S
C378        C379   1.410       .  A
C379        C380   1.399       .  A
C379       Br386   1.907       .  S
C380        C381   1.402       .  A
C380        H385   1.085       .  S
C381        C382   1.419       .  A
C382       Br383   1.919       .  S
C387        C388   1.410       .  A
C387        C392   1.406       .  A
C387        H394   1.084       .  S
C388        C389   1.408       .  A
C389        C390   1.407       .  A
C389       Br396   1.918       .  S
C390        C391   1.408       .  A
C390        H395   1.084       .  S
C391        C392   1.405       .  A
C392       Br393   1.917       .  S
C397        C398   1.409       .  A
C397        C402   1.401       .  A
C397        H404   1.084       .  S
C398       C1231   1.419   1_455  A
C399        C400   1.405       .  A
C399       C1230   1.419       .  A
C399       Br406   1.921       .  S
C400        C401   1.407       .  A
C400        H405   1.084       .  S
C401       C1234   1.412       .  A
C402       C1233   1.412   1_455  A
C402       Br403   1.921       .  S
C407        C408   1.411   1_655  A
C407       C1244   1.392       .  A
C407        H414   1.083       .  S
C408        C409   1.407       .  A
C409       C1242   1.389   1_455  A
C409       Br416   1.924       .  S
C410        C411   1.412       .  A
C410       C1241   1.389       .  A
C410        H415   1.083       .  S
C411        C412   1.407       .  A
C412       C1239   1.392       .  A
C412       Br413   1.921       .  S
O417        C432   1.268       .  A
O417       Al425   1.944       .  S
C418        O428   1.262       .  A
C418        O419   1.257       .  A
C418        C814   1.499       .  S
O419       Al421   1.894       .  S
O420        C422   1.272       .  A
O420       Al421   1.962       .  S
Al421       O429   1.992       .  S
Al421       O431   1.898       .  S
Al421       O430   1.771       .  S
C422        O435   1.254       .  A
C422        C787   1.465       .  S
O423        C433   1.269       .  A
O423       Al425   1.949       .  S
O424        C437   1.267       .  A
O424       Al434   1.944       .  S
Al425       O438   1.899       .  S
Al425       O435   1.854       .  S
Al425       O430   1.773       .  S
O426        C433   1.253       .  A
O426       Al434   1.858       .  S
O427        C436   1.256       .  A
O427       Al434   1.854       .  S
O428       Al434   1.937       .  S
O429        C436   1.283       .  A
O430       Al434   1.773       .  S
O431        C432   1.264       .  A
C432        C804   1.489       .  S
C433        C824   1.474       .  S
C436        C777   1.487       .  S
C437        O438   1.265       .  A
C437        C797   1.487       .  S
O439        C454   1.270       .  A
O439       Al447   1.935       .  S
C440        O450   1.259       .  A
C440        O441   1.265       .  A
C440        C817   1.492       .  S
O441       Al443   1.931       .  S
O442        C444   1.269       .  A
O442       Al443   1.950       .  S
Al443       O451   1.963       .  S
Al443       O453   1.901       .  S
Al443       O452   1.787       .  S
C444        O457   1.248       .  A
C444        C747   1.473       .  S
O445        C455   1.265       .  A
O445       Al447   1.948       .  S
O446        C459   1.268       .  A
Al447       O460   1.874       .  S
Al447       O457   1.841       .  S
Al447       O452   1.787       .  S
O448        C455   1.244       .  A
O448       Al456   1.825       .  S
O449        C458   1.246       .  A
O449       Al456   1.860       .  S
O450       Al456   1.895       .  S
O451        C458   1.272       .  A
O452       Al456   1.790       .  S
O453        C454   1.260       .  A
C454        C807   1.483       .  S
C455        C764   1.471       .  S
C458        C734   1.496       .  S
C459        C754   1.466       .  S
O461        C476   1.259       .  A
O461       Al469   1.884       .  S
C462        O472   1.257       .  A
C462        O463   1.266       .  A
C462        C724   1.499       .  S
O463       Al465   1.951       .  S
O464        C466   1.253       .  A
O464       Al465   1.850       .  S
Al465       O473   1.848       .  S
Al465       O475   1.958       .  S
Al465       O474   1.763       .  S
C466        O479   1.273       .  A
C466        C827   1.476       .  S
O467        C477   1.251       .  A
O467       Al469   1.843       .  S
O468        C481   1.255       .  A
O468       Al478   1.872       .  S
Al469       O482   1.953       .  S
Al469       O479   1.971       .  S
Al469       O474   1.771       .  S
O470        C477   1.278       .  A
O470       Al478   1.987       .  S
O471        C480   1.284       .  A
O471       Al478   1.997       .  S
O472       Al478   1.888       .  S
O473        C480   1.256       .  A
O474       Al478   1.763       .  S
O475        C476   1.270       .  A
C476        C744   1.484       .  S
C477        C757   1.473       .  S
C480        C704   1.488       .  S
C481        O482   1.271       .  A
C481        C717   1.470       .  S
O483       Al491   1.891       .  S
C484        O494   1.257       .  A
C484        O485   1.267       .  A
C484        C727   1.497       .  S
O485       Al487   1.950       .  S
O486        C488   1.252       .  A
O486       Al487   1.853       .  S
Al487       O495   1.845       .  S
Al487       O496   1.767       .  S
C488        O501   1.274       .  A
C488        C767   1.474       .  S
O489        C499   1.256       .  A
O489       Al491   1.865       .  S
O490        C503   1.256       .  A
O490       Al500   1.878       .  S
Al491       O504   1.956       .  S
Al491       O501   1.974       .  S
Al491       O496   1.771       .  S
O492        C499   1.277       .  A
O492       Al500   1.982       .  S
O493        C502   1.281       .  A
O493       Al500   1.991       .  S
O494       Al500   1.884       .  S
O495        C502   1.253       .  A
O496       Al500   1.766       .  S
O497        C498   1.271       .  A
C498        C784   1.481       .  S
C499        C794   1.477       .  S
C502        C694   1.480       .  S
C503        O504   1.271       .  A
C503        C714   1.471       .  S
O505       Al513   1.869       .  S
C506        O516   1.249       .  A
C506        O507   1.271       .  A
C506        C674   1.499       .  S
O507       Al509   1.966       .  S
O508        C510   1.248       .  A
O508       Al509   1.834       .  S
Al509       O517   1.845       .  S
Al509       O518   1.758       .  S
C510        O523   1.269       .  A
C510        C644   1.458       .  S
O511        C521   1.253       .  A
O511       Al513   1.842       .  S
O512        C525   1.259       .  A
O512       Al522   1.890       .  S
Al513       O526   1.940       .  S
Al513       O523   1.966       .  S
Al513       O518   1.773       .  S
O514        C521   1.280       .  A
O514       Al522   1.978       .  S
O515        C524   1.281       .  A
O515       Al522   1.992       .  S
O516       Al522   1.860       .  S
O517        C524   1.250       .  A
O518       Al522   1.758       .  S
O519        C520   1.277       .  A
C520        C654   1.475       .  S
C521        C664   1.473       .  S
C524        C737   1.492       .  S
C525        O526   1.268       .  A
C525        C684   1.488       .  S
O527        C542   1.257       .  A
O527       Al535   1.873       .  S
C528        O538   1.253       .  A
C528        O529   1.269       .  A
C528        C677   1.496       .  S
O529       Al531   1.948       .  S
O530        C532   1.254       .  A
O530       Al531   1.856       .  S
Al531       O539   1.844       .  S
Al531       O541   1.966       .  S
Al531       O540   1.766       .  S
C532        O545   1.269       .  A
C532        C617   1.473       .  S
O533        C543   1.250       .  A
O533       Al535   1.831       .  S
O534        C547   1.260       .  A
O534       Al544   1.889       .  S
Al535       O548   1.931       .  S
Al535       O545   1.956       .  S
Al535       O540   1.765       .  S
O536        C543   1.280       .  A
O536       Al544   1.985       .  S
O537        C546   1.282       .  A
O537       Al544   1.997       .  S
O538       Al544   1.883       .  S
O539        C546   1.254       .  A
O540       Al544   1.762       .  S
O541        C542   1.273       .  A
C542        C624   1.481       .  S
C543        C637   1.483       .  S
C546        C774   1.486       .  S
C547        O548   1.264       .  A
C547        C687   1.482       .  S
O549        C564   1.265       .  A
O549       Al557   1.936       .  S
C550        O560   1.270       .  A
C550        O551   1.257       .  A
C550        C594   1.501       .  S
O551       Al553   1.885       .  S
O552        C554   1.277       .  A
O552       Al553   1.978       .  S
Al553       O561   1.985       .  S
Al553       O563   1.892       .  S
Al553       O562   1.764       .  S
C554        O567   1.254       .  A
C554        C627   1.485       .  S
O555        C565   1.267       .  A
O555       Al557   1.955       .  S
O556        C569   1.275       .  A
Al557       O570   1.877       .  S
Al557       O567   1.843       .  S
Al557       O562   1.771       .  S
O558        C565   1.249       .  A
O558       Al566   1.839       .  S
O559        C568   1.252       .  A
O559       Al566   1.845       .  S
O560       Al566   1.958       .  S
O561        C568   1.279       .  A
O562       Al566   1.759       .  S
O563        C564   1.260       .  A
C564        C607   1.468       .  S
C565        C647   1.455       .  S
C568        C697   1.480       .  S
C569        C634   1.484       .  S
O571        C586   1.267       .  A
O571       Al579   1.937       .  S
C572        O582   1.268       .  A
C572        O573   1.258       .  A
C572        C597   1.506       .  S
O573       Al575   1.891       .  S
O574        C576   1.276       .  A
O574       Al575   1.978       .  S
Al575       O583   1.991       .  S
Al575       O585   1.886       .  S
Al575       O584   1.766       .  S
C576        O589   1.252       .  A
C576        C657   1.488       .  S
O577        C587   1.270       .  A
O577       Al579   1.961       .  S
O578        C591   1.274       .  A
O578       Al588   1.968       .  S
Al579       O592   1.877       .  S
Al579       O589   1.834       .  S
Al579       O584   1.766       .  S
O580        C587   1.253       .  A
O580       Al588   1.849       .  S
O581        C590   1.256       .  A
O581       Al588   1.850       .  S
O582       Al588   1.957       .  S
O583        C590   1.282       .  A
O584       Al588   1.765       .  S
O585        C586   1.260       .  A
C586        C604   1.475       .  S
C587        C614   1.473       .  S
C590        C707   1.487       .  S
C591        O592   1.255       .  A
C591        C667   1.490       .  S
C593        C594   1.410       .  A
C593        C598   1.406       .  A
C593        H600   1.084       .  S
C594        C595   1.414       .  A
C595        C596   1.405       .  A
C595       Br602   1.920       .  S
C596        C597   1.413       .  A
C596        H601   1.084       .  S
C597        C598   1.416       .  A
C598       Br599   1.920       .  S
C603        C604   1.407       .  A
C603       C1440   1.399       .  A
C603        H610   1.084       .  S
C604        C605   1.406       .  A
C605       C1438   1.398       .  A
C605       Br612   1.911       .  S
C606       C1437   1.398   1_455  A
C606        C607   1.402       .  A
C606        H611   1.084       .  S
C607        C608   1.404       .  A
C608       C1435   1.399   1_455  A
C608       Br609   1.918       .  S
C613        C614   1.409       .  A
C613        C618   1.389       .  A
C613        H620   1.084       .  S
C614        C615   1.408   1_545  A
C615        C616   1.393       .  A
C615       Br622   1.922       .  S
C616        C617   1.410       .  A
C616        H621   1.084       .  S
C617        C618   1.408   1_565  A
C618       Br619   1.921       .  S
C623        C624   1.412   1_545  A
C623        C628   1.398       .  A
C623        H630   1.083       .  S
C624        C625   1.404       .  A
C625        C626   1.396       .  A
C625       Br632   1.921       .  S
C626        C627   1.414   1_565  A
C626        H631   1.084       .  S
C627        C628   1.407       .  A
C628       Br629   1.920       .  S
C633        C634   1.399       .  A
C633        C638   1.393       .  A
C633        H640   1.085       .  S
C634        C635   1.422       .  A
C635        C636   1.400   1_545  A
C635       Br642   1.923   1_545  S
C636        C637   1.400       .  A
C636        H641   1.085       .  S
C637        C638   1.423   1_565  A
C638       Br639   1.928       .  S
C643        C644   1.404       .  A
C643        C648   1.388       .  A
C643        H650   1.085       .  S
C645        C646   1.389       .  A
C645       Br652   1.907       .  S
C646        C647   1.402       .  A
C646        H651   1.085       .  S
C648       Br649   1.910       .  S
C653        C654   1.412   1_545  A
C653        C658   1.401       .  A
C653        H660   1.084       .  S
C654        C655   1.399       .  A
C655        C656   1.393       .  A
C655       Br662   1.919       .  S
C656        C657   1.417   1_565  A
C656        H661   1.083       .  S
C657        C658   1.410       .  A
C658       Br659   1.920       .  S
C663        C664   1.394       .  A
C663        C668   1.397   1_565  A
C663        H670   1.084       .  S
C664        C665   1.415   1_565  A
C665        C666   1.397       .  A
C665       Br672   1.924       .  S
C666        C667   1.404       .  A
C666        H671   1.083       .  S
C667        C668   1.425       .  A
C668       Br669   1.917   1_545  S
C673        C674   1.405       .  A
C673        C678   1.406       .  A
C673        H680   1.084       .  S
C674        C675   1.424       .  A
C675        C676   1.400       .  A
C675       Br682   1.926       .  S
C676        C677   1.401       .  A
C676        H681   1.084       .  S
C677        C678   1.421       .  A
C678       Br679   1.922       .  S
C683        C684   1.405       .  A
C683       C1520   1.400       .  A
C683        H690   1.084       .  S
C684        C685   1.418       .  A
C685       C1518   1.399       .  A
C685       Br692   1.922       .  S
C686       C1517   1.399   1_455  A
C686        C687   1.402       .  A
C686        H691   1.084       .  S
C687        C688   1.415       .  A
C688       C1515   1.400   1_455  A
C688       Br689   1.922       .  S
C693        C694   1.399       .  A
C693        C698   1.402       .  A
C693        H700   1.084       .  S
C695        C696   1.402       .  A
C695       Br702   1.922       .  S
C696        C697   1.399       .  A
C696        H701   1.084       .  S
C698       Br699   1.922       .  S
C703        C704   1.413       .  A
C703        C708   1.402       .  A
C703        H710   1.084       .  S
C704        C705   1.407       .  A
C705        C706   1.403       .  A
C705       Br712   1.919       .  S
C706        C707   1.412       .  A
C706        H711   1.084       .  S
C707        C708   1.406       .  A
C708       Br709   1.919       .  S
C713        C714   1.406       .  A
C713        C718   1.401       .  A
C713        H720   1.083       .  S
C714        C715   1.402       .  A
C715        C716   1.400       .  A
C715       Br722   1.915       .  S
C716        C717   1.406       .  A
C716        H721   1.084       .  S
C717        C718   1.401       .  A
C718       Br719   1.917       .  S
C723        C724   1.410       .  A
C723        C728   1.403       .  A
C723        H730   1.084       .  S
C724       C1557   1.415       .  A
C725       C1556   1.415   1_455  A
C725        C726   1.403       .  A
C725       Br732   1.921       .  S
C726        C727   1.410       .  A
C726        H731   1.084       .  S
C727       C1560   1.414   1_455  A
C728       C1559   1.414       .  A
C728       Br729   1.920       .  S
C733        C734   1.397       .  A
C733        C738   1.403       .  A
C733        H740   1.084       .  S
C735        C736   1.400       .  A
C735       Br742   1.924       .  S
C736        C737   1.394       .  A
C736        H741   1.084       .  S
C738       Br739   1.924       .  S
C743        C744   1.414       .  A
C743        C748   1.403       .  A
C743        H750   1.083       .  S
C744        C745   1.407       .  A
C745        C746   1.397       .  A
C745       Br752   1.921       .  S
C746        C747   1.409       .  A
C746        H751   1.085       .  S
C747        C748   1.402       .  A
C748       Br749   1.917       .  S
C753        C754   1.401       .  A
C753        C758   1.399       .  A
C753        H760   1.084       .  S
C754        C755   1.410       .  A
C755        C756   1.398       .  A
C755       Br762   1.918       .  S
C756        C757   1.404       .  A
C756        H761   1.084       .  S
C757        C758   1.409       .  A
C758       Br759   1.905       .  S
C763       C1600   1.391       .  A
C763        H770   1.084       .  S
C764        C765   1.398       .  A
C765       C1598   1.396       .  A
C765       Br772   1.917       .  S
C766       C1597   1.396   1_455  A
C766        H771   1.083       .  S
C767        C768   1.401       .  A
C768       C1595   1.391       .  A
C768       Br769   1.921       .  S
C773        C774   1.401       .  A
C773        C778   1.405       .  A
C773        H780   1.084       .  S
C774        C775   1.419       .  A
C775        C776   1.402       .  A
C775       Br782   1.923       .  S
C776        C777   1.399       .  A
C776        H781   1.084       .  S
C777        C778   1.420       .  A
C778       Br779   1.922       .  S
C783        C784   1.407       .  A
C783        C788   1.396       .  A
C783        H790   1.084       .  S
C784        C785   1.412       .  A
C785        C786   1.403       .  A
C785       Br792   1.916       .  S
C786        C787   1.402       .  A
C786        H791   1.085       .  S
C787        C788   1.405       .  A
C788       Br789   1.921       .  S
C793        C794   1.400       .  A
C793        C798   1.401       .  A
C793        H800   1.085       .  S
C794        C795   1.410       .  A
C795        C796   1.399       .  A
C795       Br802   1.907       .  S
C796        C797   1.402       .  A
C796        H801   1.085       .  S
C797        C798   1.419       .  A
C798       Br799   1.919       .  S
C803        C804   1.410       .  A
C803        C808   1.406       .  A
C803        H810   1.084       .  S
C804        C805   1.408       .  A
C805        C806   1.407       .  A
C805       Br812   1.918       .  S
C806        C807   1.408       .  A
C806        H811   1.084       .  S
C807        C808   1.405       .  A
C808       Br809   1.917       .  S
C813        C814   1.409       .  A
C813        C818   1.401       .  A
C813        H820   1.084       .  S
C814       C1647   1.419   1_455  A
C815       C1646   1.419       .  A
C815        C816   1.405       .  A
C815       Br822   1.921       .  S
C816        C817   1.407       .  A
C816        H821   1.084       .  S
C817       C1650   1.412       .  A
C818       C1649   1.412   1_455  A
C818       Br819   1.921       .  S
C823        C824   1.411   1_655  A
C823       C1660   1.392       .  A
C823        H830   1.083       .  S
C824        C825   1.407       .  A
C825       C1658   1.389   1_455  A
C825       Br832   1.924       .  S
C826       C1657   1.389       .  A
C826        C827   1.412       .  A
C826        H831   1.083       .  S
C827        C828   1.407       .  A
C828       C1655   1.392       .  A
C828       Br829   1.921       .  S
O833        C848   1.268       .  A
O833       Al841   1.944       .  S
C834        O844   1.262       .  A
C834        O835   1.257       .  A
C834       C1230   1.499       .  S
O835       Al837   1.894       .  S
O836        C838   1.272       .  A
O836       Al837   1.962       .  S
Al837       O845   1.992       .  S
Al837       O847   1.898       .  S
Al837       O846   1.771       .  S
C838        O851   1.254       .  A
C838       C1203   1.465       .  S
O839        C849   1.269       .  A
O839       Al841   1.949       .  S
O840        C853   1.267       .  A
O840       Al850   1.944       .  S
Al841       O854   1.899       .  S
Al841       O851   1.854       .  S
Al841       O846   1.773       .  S
O842        C849   1.253       .  A
O842       Al850   1.858       .  S
O843        C852   1.256       .  A
O843       Al850   1.854       .  S
O844       Al850   1.937       .  S
O845        C852   1.283       .  A
O846       Al850   1.773       .  S
O847        C848   1.264       .  A
C848       C1220   1.489       .  S
C849       C1240   1.474       .  S
C852       C1193   1.487       .  S
C853        O854   1.265       .  A
C853       C1213   1.487       .  S
O855        C870   1.270       .  A
O855       Al863   1.935       .  S
C856        O866   1.259       .  A
C856        O857   1.265       .  A
C856       C1233   1.492       .  S
O857       Al859   1.931       .  S
O858        C860   1.269       .  A
O858       Al859   1.950       .  S
Al859       O867   1.963       .  S
Al859       O869   1.901       .  S
Al859       O868   1.787       .  S
C860        O873   1.248       .  A
C860       C1163   1.473       .  S
O861        C871   1.265       .  A
O861       Al863   1.948       .  S
O862        C875   1.268       .  A
O862      Al1288   1.922   1_554  S
Al863       O876   1.874       .  S
Al863       O873   1.841       .  S
Al863       O868   1.787       .  S
O864        C871   1.244       .  A
O864       Al872   1.825       .  S
O865        C874   1.246       .  A
O865       Al872   1.860       .  S
O866       Al872   1.895       .  S
O867        C874   1.272       .  A
O868       Al872   1.790       .  S
O869        C870   1.260       .  A
C870       C1223   1.483       .  S
C871       C1180   1.471       .  S
Al872      O1278   1.922       .  S
C874       C1150   1.496       .  S
C875       O1292   1.257   1_554  A
C875       C1170   1.466       .  S
O876       C1291   1.257       .  A
O877        C892   1.259       .  A
O877       Al885   1.884       .  S
C878        O888   1.257       .  A
C878        O879   1.266       .  A
C878       C1140   1.499       .  S
O879       Al881   1.951       .  S
O880        C882   1.253       .  A
O880       Al881   1.850       .  S
Al881       O889   1.848       .  S
Al881       O891   1.958       .  S
Al881       O890   1.763       .  S
C882        O895   1.273       .  A
C882       C1243   1.476       .  S
O883        C893   1.251       .  A
O883       Al885   1.843       .  S
O884        C897   1.255       .  A
O884       Al894   1.872       .  S
Al885       O898   1.953       .  S
Al885       O895   1.971       .  S
Al885       O890   1.771       .  S
O886        C893   1.278       .  A
O886       Al894   1.987       .  S
O887        C896   1.284       .  A
O887       Al894   1.997       .  S
O888       Al894   1.888       .  S
O889        C896   1.256       .  A
O890       Al894   1.763       .  S
O891        C892   1.270       .  A
C892       C1160   1.484       .  S
C893       C1173   1.473       .  S
C896       C1120   1.488       .  S
C897        O898   1.271       .  A
C897       C1133   1.470       .  S
O899       C1330   1.260   1_554  A
O899       Al907   1.891       .  S
C900        O910   1.257       .  A
C900        O901   1.267       .  A
C900       C1143   1.497       .  S
O901       Al903   1.950       .  S
O902        C904   1.252       .  A
O902       Al903   1.853       .  S
Al903       O911   1.845       .  S
Al903      O1329   1.955   1_554  S
Al903       O912   1.767       .  S
C904        O917   1.274       .  A
C904       C1183   1.474       .  S
O905        C915   1.256       .  A
O905       Al907   1.865       .  S
O906        C919   1.256       .  A
O906       Al916   1.878       .  S
Al907       O920   1.956       .  S
Al907       O917   1.974       .  S
Al907       O912   1.771       .  S
O908        C915   1.277       .  A
O908       Al916   1.982       .  S
O909        C918   1.281       .  A
O909       Al916   1.991       .  S
O910       Al916   1.884       .  S
O911        C918   1.253       .  A
O912       Al916   1.766       .  S
O913        C914   1.271       .  A
O913      Al1319   1.955       .  S
C914       O1315   1.260       .  A
C914       C1200   1.481       .  S
C915       C1210   1.477       .  S
C918       C1110   1.480       .  S
C919        O920   1.271       .  A
C919       C1130   1.471       .  S
O921       C1352   1.258   1_554  A
O921       Al929   1.869       .  S
C922        O932   1.249       .  A
C922        O923   1.271       .  A
C922       C1090   1.499       .  S
O923       Al925   1.966       .  S
O924        C926   1.248       .  A
O924       Al925   1.834       .  S
Al925       O933   1.845       .  S
Al925      O1351   1.967   1_554  S
Al925       O934   1.758       .  S
C926        O939   1.269       .  A
C926       C1060   1.458       .  S
O927        C937   1.253       .  A
O927       Al929   1.842       .  S
O928        C941   1.259       .  A
O928       Al938   1.890       .  S
Al929       O942   1.940       .  S
Al929       O939   1.966       .  S
Al929       O934   1.773       .  S
O930        C937   1.280       .  A
O930       Al938   1.978       .  S
O931        C940   1.281       .  A
O931       Al938   1.992       .  S
O932       Al938   1.860       .  S
O933        C940   1.250       .  A
O934       Al938   1.758       .  S
O935        C936   1.277       .  A
O935      Al1341   1.967       .  S
C936       O1337   1.258       .  A
C936       C1070   1.475       .  S
C937       C1080   1.473       .  S
C940       C1153   1.492       .  S
C941        O942   1.268       .  A
C941       C1100   1.488       .  S
O943        C958   1.257       .  A
O943       Al951   1.873       .  S
C944        O954   1.253       .  A
C944        O945   1.269       .  A
C944       C1093   1.496       .  S
O945       Al947   1.948       .  S
O946        C948   1.254       .  A
O946       Al947   1.856       .  S
Al947       O955   1.844       .  S
Al947       O957   1.966       .  S
Al947       O956   1.766       .  S
C948        O961   1.269       .  A
C948       C1033   1.473       .  S
O949        C959   1.250       .  A
O949       Al951   1.831       .  S
O950        C963   1.260       .  A
O950       Al960   1.889       .  S
Al951       O964   1.931       .  S
Al951       O961   1.956       .  S
Al951       O956   1.765       .  S
O952        C959   1.280       .  A
O952       Al960   1.985       .  S
O953        C962   1.282       .  A
O953       Al960   1.997       .  S
O954       Al960   1.883       .  S
O955        C962   1.254       .  A
O956       Al960   1.762       .  S
O957        C958   1.273       .  A
C958       C1040   1.481       .  S
C959       C1053   1.483       .  S
C962       C1190   1.486       .  S
C963        O964   1.264       .  A
C963       C1103   1.482       .  S
O965        C980   1.265       .  A
O965       Al973   1.936       .  S
C966        O976   1.270       .  A
C966        O967   1.257       .  A
C966       C1010   1.501       .  S
O967       Al969   1.885       .  S
O968        C970   1.277       .  A
O968       Al969   1.978       .  S
Al969       O977   1.985       .  S
Al969       O979   1.892       .  S
Al969       O978   1.764       .  S
C970        O983   1.254       .  A
C970       C1043   1.485       .  S
O971        C981   1.267       .  A
O971       Al973   1.955       .  S
O972        C985   1.275       .  A
O972      Al1398   1.957   1_554  S
Al973       O986   1.877       .  S
Al973       O983   1.843       .  S
Al973       O978   1.771       .  S
O974        C981   1.249       .  A
O974       Al982   1.839       .  S
O975        C984   1.252       .  A
O975       Al982   1.845       .  S
O976       Al982   1.958       .  S
O977        C984   1.279       .  A
O978       Al982   1.759       .  S
O979        C980   1.260       .  A
C980       C1023   1.468       .  S
C981       C1063   1.455       .  S
Al982      O1388   1.957       .  S
C984       C1113   1.480       .  S
C985       O1402   1.256   1_554  A
C985       C1050   1.484       .  S
O986       C1401   1.256       .  A
O987       C1002   1.267       .  A
O987       Al995   1.937       .  S
C988        O998   1.268       .  A
C988        O989   1.258       .  A
C988       C1013   1.506       .  S
O989       Al991   1.891       .  S
O990        C992   1.276       .  A
O990       Al991   1.978       .  S
Al991       O999   1.991       .  S
Al991      O1001   1.886       .  S
Al991      O1000   1.766       .  S
C992       O1005   1.252       .  A
C992       C1073   1.488       .  S
O993       C1003   1.270       .  A
O993       Al995   1.961       .  S
O994       C1007   1.274       .  A
O994      Al1004   1.968       .  S
Al995      O1008   1.877       .  S
Al995      O1005   1.834       .  S
Al995      O1000   1.766       .  S
O996       C1003   1.253       .  A
O996      Al1004   1.849       .  S
O997       C1006   1.256       .  A
O997      Al1004   1.850       .  S
O998      Al1004   1.957       .  S
O999       C1006   1.282       .  A
O1000     Al1004   1.765       .  S
O1001      C1002   1.260       .  A
C1002      C1020   1.475       .  S
C1003      C1030   1.473       .  S
C1006      C1123   1.487       .  S
C1007      O1008   1.255       .  A
C1007      C1083   1.490       .  S
C1009      C1010   1.410       .  A
C1009      C1014   1.406       .  A
C1009      H1016   1.084       .  S
C1010      C1011   1.414       .  A
C1011      C1012   1.405       .  A
C1011     Br1018   1.920       .  S
C1012      C1013   1.413       .  A
C1012      H1017   1.084       .  S
C1013      C1014   1.416       .  A
C1014     Br1015   1.920       .  S
C1019      C1020   1.407       .  A
C1019      H1026   1.084       .  S
C1020      C1021   1.406       .  A
C1021     Br1028   1.911       .  S
C1022      C1023   1.402       .  A
C1022      H1027   1.084       .  S
C1023      C1024   1.404       .  A
C1024     Br1025   1.918       .  S
C1029      C1030   1.409       .  A
C1029      C1034   1.389       .  A
C1029      H1036   1.084       .  S
C1030      C1031   1.408   1_545  A
C1031      C1032   1.393       .  A
C1031     Br1038   1.922       .  S
C1032      C1033   1.410       .  A
C1032      H1037   1.084       .  S
C1033      C1034   1.408   1_565  A
C1034     Br1035   1.921       .  S
C1039      C1040   1.412   1_545  A
C1039      C1044   1.398       .  A
C1039      H1046   1.083       .  S
C1040      C1041   1.404       .  A
C1041      C1042   1.396       .  A
C1041     Br1048   1.921       .  S
C1042      C1043   1.414   1_565  A
C1042      H1047   1.084       .  S
C1043      C1044   1.407       .  A
C1044     Br1045   1.920       .  S
C1049      C1050   1.399       .  A
C1049      C1054   1.393       .  A
C1049      H1056   1.085       .  S
C1050      C1051   1.422       .  A
C1051      C1052   1.400   1_545  A
C1051     Br1058   1.923   1_544  S
C1052      C1053   1.400       .  A
C1052      H1057   1.085       .  S
C1053      C1054   1.423   1_565  A
C1054     Br1055   1.928       .  S
C1059      C1060   1.404       .  A
C1059      C1064   1.388       .  A
C1059      H1066   1.085       .  S
C1060      C1477   1.405   1_564  A
C1061      C1476   1.405   1_545  A
C1061      C1062   1.389       .  A
C1061     Br1068   1.907       .  S
C1062      C1063   1.402       .  A
C1062      H1067   1.085       .  S
C1063      C1480   1.403   1_545  A
C1064      C1479   1.403   1_564  A
C1064     Br1065   1.910       .  S
C1069      C1070   1.412   1_545  A
C1069      C1074   1.401       .  A
C1069      H1076   1.084       .  S
C1070      C1071   1.399       .  A
C1071      C1072   1.393       .  A
C1071     Br1078   1.919       .  S
C1072      C1073   1.417   1_565  A
C1072      H1077   1.083       .  S
C1073      C1074   1.410       .  A
C1074     Br1075   1.920       .  S
C1079      C1080   1.394       .  A
C1079      C1084   1.397   1_565  A
C1079      H1086   1.084       .  S
C1080      C1081   1.415   1_565  A
C1081      C1082   1.397       .  A
C1081     Br1088   1.924       .  S
C1082      C1083   1.404       .  A
C1082      H1087   1.083       .  S
C1083      C1084   1.425       .  A
C1084     Br1085   1.917   1_545  S
C1089      C1090   1.405       .  A
C1089      C1094   1.406       .  A
C1089      H1096   1.084       .  S
C1090      C1091   1.424       .  A
C1091      C1092   1.400       .  A
C1091     Br1098   1.926       .  S
C1092      C1093   1.401       .  A
C1092      H1097   1.084       .  S
C1093      C1094   1.421       .  A
C1094     Br1095   1.922       .  S
C1099      C1100   1.405       .  A
C1099      H1106   1.084       .  S
C1100      C1101   1.418       .  A
C1101     Br1108   1.922       .  S
C1102      C1103   1.402       .  A
C1102      H1107   1.084       .  S
C1103      C1104   1.415       .  A
C1104     Br1105   1.922       .  S
C1109      C1110   1.399       .  A
C1109      C1114   1.402       .  A
C1109      H1116   1.084       .  S
C1110      C1527   1.417   1_554  A
C1111      C1526   1.417       .  A
C1111      C1112   1.402       .  A
C1111     Br1118   1.922       .  S
C1112      C1113   1.399       .  A
C1112      H1117   1.084       .  S
C1113      C1530   1.418       .  A
C1114      C1529   1.418   1_554  A
C1114     Br1115   1.922       .  S
C1119      C1120   1.413       .  A
C1119      C1124   1.402       .  A
C1119      H1126   1.084       .  S
C1120      C1121   1.407       .  A
C1121      C1122   1.403       .  A
C1121     Br1128   1.919       .  S
C1122      C1123   1.412       .  A
C1122      H1127   1.084       .  S
C1123      C1124   1.406       .  A
C1124     Br1125   1.919       .  S
C1129      C1130   1.406       .  A
C1129      C1134   1.401       .  A
C1129      H1136   1.083       .  S
C1130      C1131   1.402       .  A
C1131      C1132   1.400       .  A
C1131     Br1138   1.915       .  S
C1132      C1133   1.406       .  A
C1132      H1137   1.084       .  S
C1133      C1134   1.401       .  A
C1134     Br1135   1.917       .  S
C1139      C1140   1.410       .  A
C1139      C1144   1.403       .  A
C1139      H1146   1.084       .  S
C1141      C1142   1.403       .  A
C1141     Br1148   1.921       .  S
C1142      C1143   1.410       .  A
C1142      H1147   1.084       .  S
C1144     Br1145   1.920       .  S
C1149      C1150   1.397       .  A
C1149      C1154   1.403       .  A
C1149      H1156   1.084       .  S
C1150      C1567   1.430       .  A
C1151      C1566   1.430   1_554  A
C1151      C1152   1.400       .  A
C1151     Br1158   1.924       .  S
C1152      C1153   1.394       .  A
C1152      H1157   1.084       .  S
C1153      C1570   1.427   1_554  A
C1154      C1569   1.427       .  A
C1154     Br1155   1.924       .  S
C1159      C1160   1.414       .  A
C1159      C1164   1.403       .  A
C1159      H1166   1.083       .  S
C1160      C1161   1.407       .  A
C1161      C1162   1.397       .  A
C1161     Br1168   1.921       .  S
C1162      C1163   1.409       .  A
C1162      H1167   1.085       .  S
C1163      C1164   1.402       .  A
C1164     Br1165   1.917       .  S
C1169      C1170   1.401       .  A
C1169      C1174   1.399       .  A
C1169      H1176   1.084       .  S
C1170      C1171   1.410       .  A
C1171      C1172   1.398       .  A
C1171     Br1178   1.918       .  S
C1172      C1173   1.404       .  A
C1172      H1177   1.084       .  S
C1173      C1174   1.409       .  A
C1174     Br1175   1.905       .  S
C1179      C1596   1.414   1_455  A
C1179      H1186   1.084   1_455  S
C1180      C1595   1.414   1_655  A
C1180      C1181   1.398       .  A
C1181     Br1188   1.917       .  S
C1182      C1599   1.416       .  A
C1182      H1187   1.083       .  S
C1183      C1598   1.416   1_554  A
C1183      C1184   1.401       .  A
C1184     Br1185   1.921       .  S
C1189      C1190   1.401       .  A
C1189      C1194   1.405       .  A
C1189      H1196   1.084       .  S
C1190      C1191   1.419       .  A
C1191      C1192   1.402       .  A
C1191     Br1198   1.923       .  S
C1192      C1193   1.399       .  A
C1192      H1197   1.084       .  S
C1193      C1194   1.420       .  A
C1194     Br1195   1.922       .  S
C1199      C1200   1.407       .  A
C1199      C1204   1.396       .  A
C1199      H1206   1.084       .  S
C1200      C1201   1.412       .  A
C1201      C1202   1.403       .  A
C1201     Br1208   1.916       .  S
C1202      C1203   1.402       .  A
C1202      H1207   1.085       .  S
C1203      C1204   1.405       .  A
C1204     Br1205   1.921       .  S
C1209      C1210   1.400       .  A
C1209      C1214   1.401       .  A
C1209      H1216   1.085       .  S
C1210      C1211   1.410       .  A
C1211      C1212   1.399       .  A
C1211     Br1218   1.907       .  S
C1212      C1213   1.402       .  A
C1212      H1217   1.085       .  S
C1213      C1214   1.419       .  A
C1214     Br1215   1.919       .  S
C1219      C1220   1.410       .  A
C1219      C1224   1.406       .  A
C1219      H1226   1.084       .  S
C1220      C1221   1.408       .  A
C1221      C1222   1.407       .  A
C1221     Br1228   1.918       .  S
C1222      C1223   1.408       .  A
C1222      H1227   1.084       .  S
C1223      C1224   1.405       .  A
C1224     Br1225   1.917       .  S
C1229      C1230   1.409       .  A
C1229      C1234   1.401       .  A
C1229      H1236   1.084       .  S
C1231      C1232   1.405       .  A
C1231     Br1238   1.921       .  S
C1232      C1233   1.407       .  A
C1232      H1237   1.084       .  S
C1234     Br1235   1.921       .  S
C1239      C1240   1.411       .  A
C1239      H1246   1.083       .  S
C1240      C1241   1.407       .  A
C1241     Br1248   1.924       .  S
C1242      C1243   1.412       .  A
C1242      H1247   1.083   1_655  S
C1243      C1244   1.407       .  A
C1244     Br1245   1.921       .  S
O1249      C1264   1.268       .  A
O1249     Al1257   1.944       .  S
C1250      O1260   1.262       .  A
C1250      O1251   1.257       .  A
C1250      C1646   1.499       .  S
O1251     Al1253   1.894       .  S
O1252      C1254   1.272       .  A
O1252     Al1253   1.962       .  S
Al1253     O1261   1.992       .  S
Al1253     O1263   1.898       .  S
Al1253     O1262   1.771       .  S
C1254      O1267   1.254       .  A
C1254      C1619   1.465       .  S
O1255      C1265   1.269       .  A
O1255     Al1257   1.949       .  S
O1256      C1269   1.267       .  A
O1256     Al1266   1.944       .  S
Al1257     O1270   1.899       .  S
Al1257     O1267   1.854       .  S
Al1257     O1262   1.773       .  S
O1258      C1265   1.253       .  A
O1258     Al1266   1.858       .  S
O1259      C1268   1.256       .  A
O1259     Al1266   1.854       .  S
O1260     Al1266   1.937       .  S
O1261      C1268   1.283       .  A
O1262     Al1266   1.773       .  S
O1263      C1264   1.264       .  A
C1264      C1636   1.489       .  S
C1265      C1656   1.474       .  S
C1268      C1609   1.487       .  S
C1269      O1270   1.265       .  A
C1269      C1629   1.487       .  S
O1271      C1286   1.270       .  A
O1271     Al1279   1.935       .  S
C1272      O1282   1.259       .  A
C1272      O1273   1.265       .  A
C1272      C1649   1.492       .  S
O1273     Al1275   1.931       .  S
O1274      C1276   1.269       .  A
O1274     Al1275   1.950       .  S
Al1275     O1283   1.963       .  S
Al1275     O1285   1.901       .  S
Al1275     O1284   1.787       .  S
C1276      O1289   1.248       .  A
C1276      C1579   1.473       .  S
O1277      C1287   1.265       .  A
O1277     Al1279   1.948       .  S
O1278      C1291   1.268       .  A
Al1279     O1292   1.874       .  S
Al1279     O1289   1.841       .  S
Al1279     O1284   1.787       .  S
O1280      C1287   1.244       .  A
O1280     Al1288   1.825       .  S
O1281      C1290   1.246       .  A
O1281     Al1288   1.860       .  S
O1282     Al1288   1.895       .  S
O1283      C1290   1.272       .  A
O1284     Al1288   1.790       .  S
O1285      C1286   1.260       .  A
C1286      C1639   1.483       .  S
C1287      C1596   1.471       .  S
C1290      C1566   1.496       .  S
C1291      C1586   1.466       .  S
O1293      C1308   1.259       .  A
O1293     Al1301   1.884       .  S
C1294      O1304   1.257       .  A
C1294      O1295   1.266       .  A
C1294      C1556   1.499       .  S
O1295     Al1297   1.951       .  S
O1296      C1298   1.253       .  A
O1296     Al1297   1.850       .  S
Al1297     O1305   1.848       .  S
Al1297     O1307   1.958       .  S
Al1297     O1306   1.763       .  S
C1298      O1311   1.273       .  A
C1298      C1659   1.476       .  S
O1299      C1309   1.251       .  A
O1299     Al1301   1.843       .  S
O1300      C1313   1.255       .  A
O1300     Al1310   1.872       .  S
Al1301     O1314   1.953       .  S
Al1301     O1311   1.971       .  S
Al1301     O1306   1.771       .  S
O1302      C1309   1.278       .  A
O1302     Al1310   1.987       .  S
O1303      C1312   1.284       .  A
O1303     Al1310   1.997       .  S
O1304     Al1310   1.888       .  S
O1305      C1312   1.256       .  A
O1306     Al1310   1.763       .  S
O1307      C1308   1.270       .  A
C1308      C1576   1.484       .  S
C1309      C1589   1.473       .  S
C1312      C1536   1.488       .  S
C1313      O1314   1.271       .  A
C1313      C1549   1.470       .  S
O1315     Al1323   1.891       .  S
C1316      O1326   1.257       .  A
C1316      O1317   1.267       .  A
C1316      C1559   1.497       .  S
O1317     Al1319   1.950       .  S
O1318      C1320   1.252       .  A
O1318     Al1319   1.853       .  S
Al1319     O1327   1.845       .  S
Al1319     O1328   1.767       .  S
C1320      O1333   1.274       .  A
C1320      C1599   1.474       .  S
O1321      C1331   1.256       .  A
O1321     Al1323   1.865       .  S
O1322      C1335   1.256       .  A
O1322     Al1332   1.878       .  S
Al1323     O1336   1.956       .  S
Al1323     O1333   1.974       .  S
Al1323     O1328   1.771       .  S
O1324      C1331   1.277       .  A
O1324     Al1332   1.982       .  S
O1325      C1334   1.281       .  A
O1325     Al1332   1.991       .  S
O1326     Al1332   1.884       .  S
O1327      C1334   1.253       .  A
O1328     Al1332   1.766       .  S
O1329      C1330   1.271       .  A
C1330      C1616   1.481       .  S
C1331      C1626   1.477       .  S
C1334      C1526   1.480       .  S
C1335      O1336   1.271       .  A
C1335      C1546   1.471       .  S
O1337     Al1345   1.869       .  S
C1338      O1348   1.249       .  A
C1338      O1339   1.271       .  A
C1338      C1506   1.499       .  S
O1339     Al1341   1.966       .  S
O1340      C1342   1.248       .  A
O1340     Al1341   1.834       .  S
Al1341     O1349   1.845       .  S
Al1341     O1350   1.758       .  S
C1342      O1355   1.269       .  A
C1342      C1476   1.458       .  S
O1343      C1353   1.253       .  A
O1343     Al1345   1.842       .  S
O1344      C1357   1.259       .  A
O1344     Al1354   1.890       .  S
Al1345     O1358   1.940       .  S
Al1345     O1355   1.966       .  S
Al1345     O1350   1.773       .  S
O1346      C1353   1.280       .  A
O1346     Al1354   1.978       .  S
O1347      C1356   1.281       .  A
O1347     Al1354   1.992       .  S
O1348     Al1354   1.860       .  S
O1349      C1356   1.250       .  A
O1350     Al1354   1.758       .  S
O1351      C1352   1.277       .  A
C1352      C1486   1.475       .  S
C1353      C1496   1.473       .  S
C1356      C1569   1.492       .  S
C1357      O1358   1.268       .  A
C1357      C1516   1.488       .  S
O1359      C1374   1.257       .  A
O1359     Al1367   1.873       .  S
C1360      O1370   1.253       .  A
C1360      O1361   1.269       .  A
C1360      C1509   1.496       .  S
O1361     Al1363   1.948       .  S
O1362      C1364   1.254       .  A
O1362     Al1363   1.856       .  S
Al1363     O1371   1.844       .  S
Al1363     O1373   1.966       .  S
Al1363     O1372   1.766       .  S
C1364      O1377   1.269       .  A
C1364      C1449   1.473       .  S
O1365      C1375   1.250       .  A
O1365     Al1367   1.831       .  S
O1366      C1379   1.260       .  A
O1366     Al1376   1.889       .  S
Al1367     O1380   1.931       .  S
Al1367     O1377   1.956       .  S
Al1367     O1372   1.765       .  S
O1368      C1375   1.280       .  A
O1368     Al1376   1.985       .  S
O1369      C1378   1.282       .  A
O1369     Al1376   1.997       .  S
O1370     Al1376   1.883       .  S
O1371      C1378   1.254       .  A
O1372     Al1376   1.762       .  S
O1373      C1374   1.273       .  A
C1374      C1456   1.481       .  S
C1375      C1469   1.483       .  S
C1378      C1606   1.486       .  S
C1379      O1380   1.264       .  A
C1379      C1519   1.482       .  S
O1381      C1396   1.265       .  A
O1381     Al1389   1.936       .  S
C1382      O1392   1.270       .  A
C1382      O1383   1.257       .  A
C1382      C1426   1.501       .  S
O1383     Al1385   1.885       .  S
O1384      C1386   1.277       .  A
O1384     Al1385   1.978       .  S
Al1385     O1393   1.985       .  S
Al1385     O1395   1.892       .  S
Al1385     O1394   1.764       .  S
C1386      O1399   1.254       .  A
C1386      C1459   1.485       .  S
O1387      C1397   1.267       .  A
O1387     Al1389   1.955       .  S
O1388      C1401   1.275       .  A
Al1389     O1402   1.877       .  S
Al1389     O1399   1.843       .  S
Al1389     O1394   1.771       .  S
O1390      C1397   1.249       .  A
O1390     Al1398   1.839       .  S
O1391      C1400   1.252       .  A
O1391     Al1398   1.845       .  S
O1392     Al1398   1.958       .  S
O1393      C1400   1.279       .  A
O1394     Al1398   1.759       .  S
O1395      C1396   1.260       .  A
C1396      C1439   1.468       .  S
C1397      C1479   1.455       .  S
C1400      C1529   1.480       .  S
C1401      C1466   1.484       .  S
O1403      C1418   1.267       .  A
O1403     Al1411   1.937       .  S
C1404      O1414   1.268       .  A
C1404      O1405   1.258       .  A
C1404      C1429   1.506       .  S
O1405     Al1407   1.891       .  S
O1406      C1408   1.276       .  A
O1406     Al1407   1.978       .  S
Al1407     O1415   1.991       .  S
Al1407     O1417   1.886       .  S
Al1407     O1416   1.766       .  S
C1408      O1421   1.252       .  A
C1408      C1489   1.488       .  S
O1409      C1419   1.270       .  A
O1409     Al1411   1.961       .  S
O1410      C1423   1.274       .  A
O1410     Al1420   1.968       .  S
Al1411     O1424   1.877       .  S
Al1411     O1421   1.834       .  S
Al1411     O1416   1.766       .  S
O1412      C1419   1.253       .  A
O1412     Al1420   1.849       .  S
O1413      C1422   1.256       .  A
O1413     Al1420   1.850       .  S
O1414     Al1420   1.957       .  S
O1415      C1422   1.282       .  A
O1416     Al1420   1.765       .  S
O1417      C1418   1.260       .  A
C1418      C1436   1.475       .  S
C1419      C1446   1.473       .  S
C1422      C1539   1.487       .  S
C1423      O1424   1.255       .  A
C1423      C1499   1.490       .  S
C1425      C1426   1.410       .  A
C1425      C1430   1.406       .  A
C1425      H1432   1.084       .  S
C1426      C1427   1.414       .  A
C1427      C1428   1.405       .  A
C1427     Br1434   1.920       .  S
C1428      C1429   1.413       .  A
C1428      H1433   1.084       .  S
C1429      C1430   1.416       .  A
C1430     Br1431   1.920       .  S
C1435      C1436   1.407       .  A
C1435      H1442   1.084       .  S
C1436      C1437   1.406       .  A
C1437     Br1444   1.911       .  S
C1438      C1439   1.402       .  A
C1438      H1443   1.084       .  S
C1439      C1440   1.404       .  A
C1440     Br1441   1.918       .  S
C1445      C1446   1.409       .  A
C1445      C1450   1.389       .  A
C1445      H1452   1.084       .  S
C1446      C1447   1.408   1_545  A
C1447      C1448   1.393       .  A
C1447     Br1454   1.922       .  S
C1448      C1449   1.410       .  A
C1448      H1453   1.084       .  S
C1449      C1450   1.408   1_565  A
C1450     Br1451   1.921       .  S
C1455      C1456   1.412   1_545  A
C1455      C1460   1.398       .  A
C1455      H1462   1.083       .  S
C1456      C1457   1.404       .  A
C1457      C1458   1.396       .  A
C1457     Br1464   1.921       .  S
C1458      C1459   1.414   1_565  A
C1458      H1463   1.084       .  S
C1459      C1460   1.407       .  A
C1460     Br1461   1.920       .  S
C1465      C1466   1.399       .  A
C1465      C1470   1.393       .  A
C1465      H1472   1.085       .  S
C1466      C1467   1.422       .  A
C1467      C1468   1.400   1_545  A
C1467     Br1474   1.923   1_545  S
C1468      C1469   1.400       .  A
C1468      H1473   1.085       .  S
C1469      C1470   1.423   1_565  A
C1470     Br1471   1.928       .  S
C1475      C1476   1.404       .  A
C1475      C1480   1.388       .  A
C1475      H1482   1.085       .  S
C1477      C1478   1.389       .  A
C1477     Br1484   1.907       .  S
C1478      C1479   1.402       .  A
C1478      H1483   1.085       .  S
C1480     Br1481   1.910       .  S
C1485      C1486   1.412   1_545  A
C1485      C1490   1.401       .  A
C1485      H1492   1.084       .  S
C1486      C1487   1.399       .  A
C1487      C1488   1.393       .  A
C1487     Br1494   1.919       .  S
C1488      C1489   1.417   1_565  A
C1488      H1493   1.083       .  S
C1489      C1490   1.410       .  A
C1490     Br1491   1.920       .  S
C1495      C1496   1.394       .  A
C1495      C1500   1.397   1_565  A
C1495      H1502   1.084       .  S
C1496      C1497   1.415   1_565  A
C1497      C1498   1.397       .  A
C1497     Br1504   1.924       .  S
C1498      C1499   1.404       .  A
C1498      H1503   1.083       .  S
C1499      C1500   1.425       .  A
C1500     Br1501   1.917   1_545  S
C1505      C1506   1.405       .  A
C1505      C1510   1.406       .  A
C1505      H1512   1.084       .  S
C1506      C1507   1.424       .  A
C1507      C1508   1.400       .  A
C1507     Br1514   1.926       .  S
C1508      C1509   1.401       .  A
C1508      H1513   1.084       .  S
C1509      C1510   1.421       .  A
C1510     Br1511   1.922       .  S
C1515      C1516   1.405       .  A
C1515      H1522   1.084       .  S
C1516      C1517   1.418       .  A
C1517     Br1524   1.922       .  S
C1518      C1519   1.402       .  A
C1518      H1523   1.084       .  S
C1519      C1520   1.415       .  A
C1520     Br1521   1.922       .  S
C1525      C1526   1.399       .  A
C1525      C1530   1.402       .  A
C1525      H1532   1.084       .  S
C1527      C1528   1.402       .  A
C1527     Br1534   1.922       .  S
C1528      C1529   1.399       .  A
C1528      H1533   1.084       .  S
C1530     Br1531   1.922       .  S
C1535      C1536   1.413       .  A
C1535      C1540   1.402       .  A
C1535      H1542   1.084       .  S
C1536      C1537   1.407       .  A
C1537      C1538   1.403       .  A
C1537     Br1544   1.919       .  S
C1538      C1539   1.412       .  A
C1538      H1543   1.084       .  S
C1539      C1540   1.406       .  A
C1540     Br1541   1.919       .  S
C1545      C1546   1.406       .  A
C1545      C1550   1.401       .  A
C1545      H1552   1.083       .  S
C1546      C1547   1.402       .  A
C1547      C1548   1.400       .  A
C1547     Br1554   1.915       .  S
C1548      C1549   1.406       .  A
C1548      H1553   1.084       .  S
C1549      C1550   1.401       .  A
C1550     Br1551   1.917       .  S
C1555      C1556   1.410       .  A
C1555      C1560   1.403       .  A
C1555      H1562   1.084       .  S
C1557      C1558   1.403       .  A
C1557     Br1564   1.921       .  S
C1558      C1559   1.410       .  A
C1558      H1563   1.084       .  S
C1560     Br1561   1.920       .  S
C1565      C1566   1.397       .  A
C1565      C1570   1.403       .  A
C1565      H1572   1.084       .  S
C1567      C1568   1.400       .  A
C1567     Br1574   1.924       .  S
C1568      C1569   1.394       .  A
C1568      H1573   1.084       .  S
C1570     Br1571   1.924       .  S
C1575      C1576   1.414       .  A
C1575      C1580   1.403       .  A
C1575      H1582   1.083       .  S
C1576      C1577   1.407       .  A
C1577      C1578   1.397       .  A
C1577     Br1584   1.921       .  S
C1578      C1579   1.409       .  A
C1578      H1583   1.085       .  S
C1579      C1580   1.402       .  A
C1580     Br1581   1.917       .  S
C1585      C1586   1.401       .  A
C1585      C1590   1.399       .  A
C1585      H1592   1.084       .  S
C1586      C1587   1.410       .  A
C1587      C1588   1.398       .  A
C1587     Br1594   1.918       .  S
C1588      C1589   1.404       .  A
C1588      H1593   1.084       .  S
C1589      C1590   1.409       .  A
C1590     Br1591   1.905       .  S
C1595      H1602   1.084   1_455  S
C1596      C1597   1.398       .  A
C1597     Br1604   1.917       .  S
C1598      H1603   1.083       .  S
C1599      C1600   1.401       .  A
C1600     Br1601   1.921       .  S
C1605      C1606   1.401       .  A
C1605      C1610   1.405       .  A
C1605      H1612   1.084       .  S
C1606      C1607   1.419       .  A
C1607      C1608   1.402       .  A
C1607     Br1614   1.923       .  S
C1608      C1609   1.399       .  A
C1608      H1613   1.084       .  S
C1609      C1610   1.420       .  A
C1610     Br1611   1.922       .  S
C1615      C1616   1.407       .  A
C1615      C1620   1.396       .  A
C1615      H1622   1.084       .  S
C1616      C1617   1.412       .  A
C1617      C1618   1.403       .  A
C1617     Br1624   1.916       .  S
C1618      C1619   1.402       .  A
C1618      H1623   1.085       .  S
C1619      C1620   1.405       .  A
C1620     Br1621   1.921       .  S
C1625      C1626   1.400       .  A
C1625      C1630   1.401       .  A
C1625      H1632   1.085       .  S
C1626      C1627   1.410       .  A
C1627      C1628   1.399       .  A
C1627     Br1634   1.907       .  S
C1628      C1629   1.402       .  A
C1628      H1633   1.085       .  S
C1629      C1630   1.419       .  A
C1630     Br1631   1.919       .  S
C1635      C1636   1.410       .  A
C1635      C1640   1.406       .  A
C1635      H1642   1.084       .  S
C1636      C1637   1.408       .  A
C1637      C1638   1.407       .  A
C1637     Br1644   1.918       .  S
C1638      C1639   1.408       .  A
C1638      H1643   1.084       .  S
C1639      C1640   1.405       .  A
C1640     Br1641   1.917       .  S
C1645      C1646   1.409       .  A
C1645      C1650   1.401       .  A
C1645      H1652   1.084       .  S
C1647      C1648   1.405       .  A
C1647     Br1654   1.921       .  S
C1648      C1649   1.407       .  A
C1648      H1653   1.084       .  S
C1650     Br1651   1.921       .  S
C1655      C1656   1.411       .  A
C1655      H1662   1.083       .  S
C1656      C1657   1.407       .  A
C1657     Br1664   1.924       .  S
C1658      C1659   1.412       .  A
C1658      H1663   1.083   1_655  S
C1659      C1660   1.407       .  A
C1660     Br1661   1.921       .  S
