geometry optimzed in LAMMPS
_audit_creation_date              2020-12-01 
_audit_creation_method            'lammps2cif' 
_symmetry_space_group_name_H-M    'P1' 
_symmetry_Int_Tables_number       1 
_symmetry_cell_setting            triclinic 
loop_ 
_symmetry_equiv_pos_as_xyz 
  x,y,z 
_cell_length_a                    29.13692979 
_cell_length_b                    47.22345176225293 
_cell_length_c                    27.88646999326162 
_cell_angle_alpha                 90.0132135200188 
_cell_angle_beta                  98.27781446864515 
_cell_angle_gamma                 89.74973346844936 
loop_ 
_atom_site_label 
_atom_site_type_symbol 
_atom_site_fract_x 
_atom_site_fract_y 
_atom_site_fract_z 
_atom_site_charge 
Fe1        Fe  0.24496153  0.61937364  0.67903755     1.65800
Fe2        Fe  0.17468053  0.61152743  0.57515995     1.73200
Fe3        Fe  0.24342104  0.55779795  0.61714132     1.54400
O4          O  0.31131295  0.56686548  0.65140762    -0.81400
O5          O  0.13176448  0.58059087  0.59122116    -0.79700
O6          O  0.31186200  0.61308138  0.66798200    -0.83900
O7          O  0.24901027  0.58442116  0.72735275    -0.78700
O8          O  0.26219906  0.56667304  0.55053804    -0.80500
O9          O  0.14441235  0.63777710  0.62205634    -0.83300
C10         C  0.23653087  0.55840889  0.72345932     0.97500
C11         C  0.33230280  0.58936917  0.66776664     1.04900
O12         O  0.22208813  0.59637982  0.62373985    -1.12200
O13         O  0.21740839  0.64282312  0.55990013    -0.74700
O14         O  0.24363751  0.65667028  0.63545344    -0.78200
O15         O  0.22506503  0.54678606  0.68248546    -0.78900
C16         C  0.23697783  0.66094886  0.58940561     0.96400
O17         O  0.17924802  0.62611372  0.69478975    -0.76800
O18         O  0.19564995  0.58684314  0.51982266    -0.82000
C19         C  0.13717321  0.55526888  0.57855821     0.99000
C20         C  0.23091468  0.57163080  0.51496076     1.04900
O21         O  0.17751926  0.54391480  0.58276609    -0.77600
C22         C  0.14420434  0.63561178  0.66737221     1.03200
Fe23       Fe  0.75260888  0.62366191  0.81983527     1.65800
Fe24       Fe  0.82970571  0.60802668  0.91688185     1.73200
Fe25       Fe  0.75684976  0.55825701  0.86859096     1.54400
O26         O  0.68887041  0.56986377  0.83844163    -0.81400
O27         O  0.86842903  0.57691218  0.89278607    -0.79700
O28         O  0.68701506  0.61681852  0.83551721    -0.83900
O29         O  0.74349322  0.59219519  0.76539166    -0.78700
O30         O  0.74040026  0.56242397  0.93722389    -0.80500
O31         O  0.86027738  0.63504329  0.87088570    -0.83300
C32         C  0.75913280  0.56691038  0.76348770     0.97500
C33         C  0.66652259  0.59314271  0.83021582     1.04900
O34         O  0.77853195  0.59707807  0.86914740    -1.12200
O35         O  0.79267057  0.64043922  0.94046284    -0.74700
O36         O  0.75971129  0.65823056  0.86944300    -0.78200
O37         O  0.77406167  0.55265746  0.80102297    -0.78900
C38         C  0.77347196  0.66066991  0.91511881     0.96400
O39         O  0.81644241  0.63059318  0.79945027    -0.76800
O40         O  0.80758841  0.58117147  0.96981153    -0.82000
C41         C  0.86255876  0.55120531  0.90197330     0.99000
C42         C  0.77189480  0.56596792  0.97323511     1.04900
O43         O  0.82182647  0.54094166  0.89839773    -0.77600
C44         C  0.85489071  0.63624618  0.82480659     1.03200
Fe45       Fe  0.75746146  0.38204586  0.32139986     1.65800
Fe46       Fe  0.82845832  0.39920502  0.42284101     1.73200
Fe47       Fe  0.75217941  0.44689295  0.37072185     1.54400
O48         O  0.76860998  0.45462927  0.30370836    -0.81400
O49         O  0.80261865  0.42527275  0.47432720    -0.79700
O50         O  0.74975300  0.41356786  0.26619189    -0.83900
O51         O  0.69027621  0.38670583  0.33280311    -0.78700
O52         O  0.81498484  0.46576328  0.40056948    -0.80500
O53         O  0.79084334  0.36633184  0.44335798    -0.83300
C54         C  0.66700578  0.40943746  0.33023109     0.97500
C55         C  0.75907882  0.44009424  0.26545344     1.04900
O56         O  0.77904964  0.40924233  0.37149462    -1.12200
O57         O  0.86310879  0.37297739  0.37918787    -0.74700
O58         O  0.82272381  0.37583473  0.30556960    -0.78200
O59         O  0.68615602  0.43336268  0.34013908    -0.78900
C60         C  0.85977690  0.37027547  0.33339387     0.96400
O61         O  0.76322887  0.34777428  0.37158261    -0.76800
O62         O  0.86785400  0.43146027  0.40345418    -0.82000
C63         C  0.76502029  0.43910837  0.47528946     0.99000
C64         C  0.85703286  0.45727578  0.40610161     1.04900
O65         O  0.73456166  0.44123565  0.43821190    -0.77600
C66         C  0.77252979  0.34596043  0.41792006     1.03200
Fe67       Fe  0.24005191  0.38200743  0.18096110     1.65800
Fe68       Fe  0.17423138  0.39334835  0.07315763     1.73200
Fe69       Fe  0.24546117  0.44449834  0.12186496     1.54400
O70         O  0.22440400  0.45476085  0.18602872    -0.81400
O71         O  0.20213433  0.41691052  0.02062333    -0.79700
O72         O  0.23955017  0.41579143  0.23075627    -0.83900
O73         O  0.30891974  0.38796596  0.17705039    -0.78700
O74         O  0.18286387  0.46114789  0.08620642    -0.80500
O75         O  0.21475625  0.35954123  0.06043032    -0.83300
C76         C  0.33084036  0.41101931  0.17580184     0.97500
C77         C  0.22851833  0.44206183  0.22640392     1.04900
O78         O  0.22070593  0.40636164  0.12534153    -1.12200
O79         O  0.13686577  0.36932348  0.11689291    -0.74700
O80         O  0.17344877  0.37452229  0.19173665    -0.78200
O81         O  0.31112254  0.43362428  0.15822874    -0.78900
C82         C  0.13786732  0.36803547  0.16252543     0.96400
O83         O  0.24140296  0.34565531  0.13623416    -0.76800
O84         O  0.13181761  0.42617895  0.08476139    -0.82000
C85         C  0.23813948  0.43185995  0.01828746     0.99000
C86         C  0.14141729  0.45190489  0.07926500     1.04900
O87         O  0.26697393  0.43690438  0.05591605    -0.77600
C88         C  0.23393971  0.34131732  0.09032956     1.03200
Fe89       Fe  0.74975737  0.88334311  0.18975465     1.65800
Fe90       Fe  0.67572093  0.89336991  0.08725454     1.73200
Fe91       Fe  0.74537485  0.94613325  0.13087544     1.54400
O92         O  0.72861567  0.95550641  0.19761064    -0.81400
O93         O  0.69733395  0.91775191  0.03178424    -0.79700
O94         O  0.75548049  0.91729883  0.23991758    -0.83900
O95         O  0.81666942  0.89006669  0.17685669    -0.78700
O96         O  0.68027335  0.96134046  0.09859309    -0.80500
O97         O  0.71698223  0.86102793  0.07083215    -0.83300
C98         C  0.83607441  0.91402127  0.17538651     0.97500
C99         C  0.74278318  0.94333258  0.23760115     1.04900
O100        O  0.72432426  0.90743324  0.13587250    -1.12200
O101        O  0.64512438  0.86804699  0.13506544    -0.74700
O102        O  0.68474044  0.87592216  0.20771368    -0.78200
O103        O  0.81312680  0.93640003  0.16206316    -0.78900
C104        C  0.64790681  0.86839431  0.18097866     0.96400
O105        O  0.74726628  0.84670089  0.14499946    -0.76800
O106        O  0.63289628  0.92506465  0.10256141    -0.82000
C107        C  0.73232260  0.93313759  0.02719234     0.99000
C108        C  0.63986414  0.95053465  0.09201243     1.04900
O109        O  0.76281717  0.93887430  0.06307824    -0.77600
C110        C  0.73780313  0.84258634  0.09914325     1.03200
Fe111      Fe  0.26301292  0.88341614  0.32162388     1.65800
Fe112      Fe  0.32369965  0.89830500  0.42988486     1.73200
Fe113      Fe  0.26251826  0.94942693  0.36769279     1.54400
O114        O  0.29080500  0.95359062  0.30586534    -0.81400
O115        O  0.29264157  0.92529458  0.47574797    -0.79700
O116        O  0.26405805  0.91452237  0.26677048    -0.83900
O117        O  0.19427512  0.89196889  0.32567959    -0.78700
O118        O  0.32413082  0.96542979  0.40681542    -0.80500
O119        O  0.27815866  0.86821208  0.44326896    -0.83300
C120        C  0.17519400  0.91621973  0.31969876     0.97500
C121        C  0.28151891  0.93941484  0.26721473     1.04900
O122        O  0.28275123  0.91028976  0.37308994    -1.12200
O123        O  0.36210204  0.87077672  0.39144016    -0.74700
O124        O  0.33054153  0.87442148  0.31414968    -0.78200
O125        O  0.19800659  0.93909350  0.32841825    -0.78900
C126        C  0.36462358  0.86851575  0.34627900     0.96400
O127        O  0.26154803  0.84872567  0.37047659    -0.76800
O128        O  0.37059637  0.92799278  0.41901774    -0.82000
C129        C  0.25698300  0.94139036  0.47107250     0.99000
C130        C  0.36349297  0.95421269  0.42144031     1.04900
O131        O  0.23388771  0.94696111  0.43010663    -0.77600
C132        C  0.26661595  0.84705152  0.41683485     1.03200
Fe133      Fe  0.25316735  0.12037984  0.82090013     1.65800
Fe134      Fe  0.33567661  0.10664228  0.91461363     1.73200
Fe135      Fe  0.26076263  0.05603589  0.87232346     1.54400
O136        O  0.19154265  0.06666445  0.84563851    -0.81400
O137        O  0.37506710  0.07498512  0.89212944    -0.79700
O138        O  0.19036867  0.11348316  0.84300999    -0.83900
O139        O  0.24117999  0.08808303  0.76795014    -0.78700
O140        O  0.24874195  0.06165246  0.94241544    -0.80500
O141        O  0.36206422  0.13313302  0.86500229    -0.83300
C142        C  0.25604964  0.06260333  0.76606061     0.97500
C143        C  0.16947146  0.09001864  0.83824302     1.04900
O144        O  0.28285195  0.09458350  0.86947663    -1.12200
O145        O  0.29895214  0.13915763  0.93861369    -0.74700
O146        O  0.26218113  0.15552414  0.86827409    -0.78200
O147        O  0.27341181  0.04900589  0.80350761    -0.78900
C148        C  0.27778499  0.15873452  0.91325820     0.96400
O149        O  0.31446081  0.12813817  0.79574525    -0.76800
O150        O  0.31731970  0.08068394  0.97001350    -0.82000
C151        C  0.36777823  0.04928372  0.90086390     0.99000
C152        C  0.28209351  0.06583305  0.97631487     1.04900
O153        O  0.32668451  0.03970955  0.89824708    -0.77600
C154        C  0.35348844  0.13479186  0.81898911     1.03200
Fe155      Fe  0.74402610  0.12162689  0.68990629     1.65800
Fe156      Fe  0.67916789  0.11235065  0.58210783     1.73200
Fe157      Fe  0.74640267  0.05925155  0.63162794     1.54400
O158        O  0.81244581  0.06919030  0.66844151    -0.81400
O159        O  0.63449723  0.08101657  0.59245352    -0.79700
O160        O  0.81209799  0.11560201  0.68238652    -0.83900
O161        O  0.74715438  0.08759151  0.73987202    -0.78700
O162        O  0.76892060  0.06621267  0.56627791    -0.80500
O163        O  0.64381849  0.13785770  0.62686598    -0.83300
C164        C  0.73443638  0.06166676  0.73647341     0.97500
C165        C  0.83298199  0.09193629  0.68402027     1.04900
O166        O  0.72381504  0.09783016  0.63446518    -1.12200
O167        O  0.72246760  0.14451728  0.57017626    -0.74700
O168        O  0.74292871  0.15872703  0.64658751    -0.78200
O169        O  0.72432810  0.04967690  0.69569893    -0.78900
C170        C  0.73795635  0.16321340  0.60078158     0.96400
O171        O  0.67724815  0.12816055  0.70137193    -0.76800
O172        O  0.70575181  0.08767346  0.52971285    -0.82000
C173        C  0.64215188  0.05486027  0.58808033     0.99000
C174        C  0.74085257  0.07162990  0.52819865     1.04900
O175        O  0.68287864  0.04421831  0.59566803    -0.77600
C176        C  0.64300528  0.13731873  0.67247072     1.03200
C177        C  0.51816717  0.15991390  0.67754816    -0.01700
C178        C  0.51479958  0.15687250  0.72728913     0.06900
C179        C  0.55498085  0.15056776  0.75950807    -0.07700
C180        C  0.59746838  0.14580733  0.74305880     0.04300
C181        C  0.60045253  0.14669325  0.69260408    -0.14900
C182        C  0.56057649  0.15473804  0.66065189    -0.08200
C183        C  0.46937201  0.15589036  0.74598366     0.05300
C184        C  0.43668096  0.13586532  0.72603573    -0.09400
C185        C  0.39744011  0.12996639  0.74772689     0.00300
C186        C  0.39084794  0.14366267  0.79137034     0.00100
C187        C  0.42236452  0.16468859  0.81020004    -0.12900
C188        C  0.46093513  0.17123472  0.78739771     0.00600
C189        C  0.36634363  0.10831261  0.72593976     0.39900
C190        C  0.49133287  0.19376504  0.80700705     0.36500
C191        C  0.47840557  0.16799589  0.64313781     0.36200
C192        C  0.63663656  0.13917332  0.77933932     0.37000
N193        N  0.34141427  0.09107535  0.70812512    -0.43800
N194        N  0.51552583  0.21196183  0.82249301    -0.44200
N195        N  0.66786057  0.13387513  0.80858468    -0.41600
N196        N  0.44647586  0.17450658  0.61566628    -0.43000
H197        H  0.56198955  0.15616796  0.62209878     0.13100
H198        H  0.55274269  0.14799083  0.79775917     0.09600
H199        H  0.44301215  0.12367408  0.69466915     0.10700
H200        H  0.41708058  0.17582560  0.84298644     0.16500
C201        C  0.04609512  0.06340183  0.80302405    -0.01700
C202        C  0.02462821  0.08654449  0.77653141     0.06900
C203        C  0.05006818  0.11136242  0.77313779    -0.07700
C204        C  0.09638849  0.11334814  0.79434873     0.04300
C205        C  0.11874075  0.08990523  0.81997225    -0.14900
C206        C  0.09282844  0.06513284  0.82400098    -0.08200
C207        C  0.97523216  0.08633773  0.75347090     0.05300
C208        C  0.94536561  0.10696099  0.76795708    -0.09400
C209        C  0.89939056  0.10927265  0.74563853     0.00300
C210        C  0.88218762  0.09068118  0.70732709     0.00100
C211        C  0.91196336  0.06971502  0.69326894    -0.12900
C212        C  0.95825135  0.06760326  0.71558396     0.00600
C213        C  0.87045436  0.13027449  0.76446233     0.39900
C214        C  0.98793358  0.04669029  0.69786595     0.36500
C215        C  0.02067159  0.03793838  0.81005753     0.36200
C216        C  0.12012980  0.13945980  0.78697908     0.37000
N217        N  0.84737434  0.14708788  0.77966968    -0.43800
N218        N  0.01164735  0.02981943  0.68379682    -0.44200
N219        N  0.13908827  0.16037740  0.78101126    -0.41600
N220        N  0.00026653  0.01750319  0.81552673    -0.43000
H221        H  0.10909196  0.04700060  0.84348521     0.13100
H222        H  0.03365643  0.12928508  0.75306955     0.09600
H223        H  0.95814815  0.12136932  0.79710978     0.10700
H224        H  0.89928726  0.05521992  0.66425846     0.16500
C225        C  0.56802071  0.00500277  0.50599764    -0.01700
C226        C  0.52370272  0.01139286  0.51766037     0.06900
C227        C  0.51904193  0.02961354  0.55621663    -0.07700
C228        C  0.55780506  0.04266005  0.58192226     0.04300
C229        C  0.60226093  0.03717750  0.56924656    -0.14900
C230        C  0.60706429  0.01782621  0.53201774    -0.08200
C231        C  0.48168303  0.99801302  0.49216938     0.05300
C232        C  0.46106245  0.97682070  0.51652529    -0.09400
C233        C  0.42165897  0.96302049  0.49415488     0.00300
C234        C  0.40162566  0.97096066  0.44682918     0.00100
C235        C  0.42126866  0.99292293  0.42299385    -0.12900
C236        C  0.46173538  0.00623149  0.44510245     0.00600
C237        C  0.40265980  0.94064383  0.52062698     0.39900
C238        C  0.48272219  0.02777115  0.41875997     0.36500
C239        C  0.57390661  0.98570436  0.46713774     0.36200
C240        C  0.55091670  0.06178120  0.62078212     0.37000
N241        N  0.38790783  0.92267536  0.54206183    -0.43800
N242        N  0.49988065  0.04485746  0.39756411    -0.44200
N243        N  0.54534338  0.07717244  0.65175531    -0.41600
N244        N  0.57822307  0.97028139  0.43582382    -0.43000
H245        H  0.64098048  0.01384159  0.52161150     0.13100
H246        H  0.48487333  0.03393270  0.56573451     0.09600
H247        H  0.47639887  0.97071369  0.55286679     0.10700
H248        H  0.40601787  0.99898037  0.38671116     0.16500
C249        C  0.28656021  0.01196202  0.67109508    -0.01700
C250        C  0.24517116  0.01112488  0.63789554     0.06900
C251        C  0.20787782  0.02870442  0.64568383    -0.07700
C252        C  0.21119047  0.04673296  0.68603411     0.04300
C253        C  0.25245404  0.04726397  0.71945607    -0.14900
C254        C  0.28973233  0.02979903  0.71139325    -0.08200
C255        C  0.24090218  0.99243808  0.59452333     0.05300
C256        C  0.24812159  0.96308746  0.60054703    -0.09400
C257        C  0.25103888  0.94546532  0.56060667     0.00300
C258        C  0.24557336  0.95714983  0.51361260     0.00100
C259        C  0.23479648  0.98607701  0.50743055    -0.12900
C260        C  0.23291237  0.00376737  0.54726743     0.00600
C261        C  0.25968035  0.91559147  0.56864371     0.39900
C262        C  0.22611155  0.03376546  0.53875866     0.36500
C263        C  0.32638417  0.99479492  0.66460088     0.36200
C264        C  0.17080906  0.06291069  0.69399474     0.37000
N265        N  0.26641831  0.89161393  0.57491710    -0.43800
N266        N  0.22068505  0.05779738  0.53190667    -0.44200
N267        N  0.13827792  0.07571359  0.70038468    -0.41600
N268        N  0.35812654  0.98088594  0.65949973    -0.43000
H269        H  0.32145342  0.02988822  0.73711214     0.13100
H270        H  0.17579168  0.02793666  0.62060535     0.09600
H271        H  0.25314105  0.95411234  0.63674371     0.10700
H272        H  0.23088274  0.99534925  0.47146543     0.16500
C273        C  0.32851862  0.01703357  0.07881810    -0.01700
C274        C  0.28820863  0.00994369  0.09887592     0.06900
C275        C  0.24619715  0.02361463  0.08111675    -0.07700
C276        C  0.24342313  0.04293476  0.04256668     0.04300
C277        C  0.28356126  0.04955701  0.02197684    -0.14900
C278        C  0.32597837  0.03696941  0.04141308    -0.08200
C279        C  0.28947691  0.98928076  0.13956938     0.05300
C280        C  0.32095393  0.99369944  0.18179477    -0.09400
C281        C  0.32183069  0.97590630  0.22190469     0.00300
C282        C  0.28886005  0.95388651  0.22157807     0.00100
C283        C  0.25879671  0.94853786  0.17850522    -0.12900
C284        C  0.25926332  0.96579864  0.13751933     0.00600
C285        C  0.35766309  0.98057672  0.26257445     0.39900
C286        C  0.22870135  0.95890145  0.09368290     0.36500
C287        C  0.37249208  0.00316175  0.09411915     0.36200
C288        C  0.19920582  0.05592982  0.02530451     0.37000
N289        N  0.38680083  0.98423315  0.29475882    -0.43800
N290        N  0.20440397  0.95337237  0.05838759    -0.44200
N291        N  0.16372757  0.06635881  0.01158901    -0.41600
N292        N  0.40778872  0.99213069  0.10633023    -0.43000
H293        H  0.35697178  0.04148497  0.02543329     0.13100
H294        H  0.21533350  0.01901508  0.09723509     0.09600
H295        H  0.34472173  0.01141312  0.18372990     0.10700
H296        H  0.23375088  0.93154163  0.17732891     0.16500
C297        C  0.53854792  0.96374519  0.99585920    -0.01700
C298        C  0.52774227  0.99233567  0.00316778     0.06900
C299        C  0.55431292  0.00770382  0.04046975    -0.07700
C300        C  0.59131371  0.99477779  0.07047089     0.04300
C301        C  0.60090038  0.96588499  0.06397762    -0.14900
C302        C  0.57432836  0.95074595  0.02653223    -0.08200
C303        C  0.48750751  0.00591247  0.97339671     0.05300
C304        C  0.44334017  0.99449330  0.97442169    -0.09400
C305        C  0.40393526  0.00679106  0.94798855     0.00300
C306        C  0.40835595  0.03145726  0.92013388     0.00100
C307        C  0.45314305  0.04203532  0.91756482    -0.12900
C308        C  0.49247573  0.02958664  0.94402276     0.00600
C309        C  0.35960451  0.99432547  0.95261802     0.39900
C310        C  0.53746025  0.04160772  0.94089037     0.36500
C311        C  0.51441647  0.94754058  0.95611883     0.36200
C312        C  0.61791460  0.01123381  0.10820821     0.37000
N313        N  0.32414756  0.98433755  0.95661388    -0.43800
N314        N  0.57354482  0.05124590  0.93865676    -0.44200
N315        N  0.63923817  0.02446980  0.13843085    -0.41600
N316        N  0.49519314  0.93460395  0.92418435    -0.43000
H317        H  0.58251294  0.92873723  0.02018139     0.13100
H318        H  0.54588664  0.02970387  0.04630892     0.09600
H319        H  0.43957549  0.97616947  0.99697856     0.10700
H320        H  0.45746154  0.06077083  0.89621456     0.16500
C321        C  0.71240261  0.99737515  0.81154685    -0.01700
C322        C  0.73217729  0.00505300  0.85876913     0.06900
C323        C  0.75217068  0.03200770  0.86647824    -0.07700
C324        C  0.75248511  0.05129853  0.82800311     0.04300
C325        C  0.73232709  0.04368263  0.78043432    -0.14900
C326        C  0.71215654  0.01658686  0.77339153    -0.08200
C327        C  0.73204785  0.98522073  0.90038487     0.05300
C328        C  0.77430946  0.97465826  0.92457485    -0.09400
C329        C  0.77539916  0.95613422  0.96419574     0.00300
C330        C  0.73362165  0.94805937  0.98048253     0.00100
C331        C  0.69136706  0.95796864  0.95515971    -0.12900
C332        C  0.69025523  0.97645406  0.91578244     0.00600
C333        C  0.81957947  0.94512302  0.98672176     0.39900
C334        C  0.64577342  0.98694282  0.89295314     0.36500
C335        C  0.69335809  0.96949437  0.80094063     0.36200
C336        C  0.77477279  0.07827026  0.83854510     0.37000
N337        N  0.85487836  0.93604176  0.00462705    -0.43800
N338        N  0.61006928  0.99514916  0.87451716    -0.44200
N339        N  0.79274737  0.09984393  0.84729562    -0.41600
N340        N  0.67801023  0.94718468  0.79247792    -0.43000
H341        H  0.69664188  0.00992589  0.73750269     0.13100
H342        H  0.76764540  0.03797996  0.90276952     0.09600
H343        H  0.80650000  0.98085438  0.91235566     0.10700
H344        H  0.65898649  0.95237281  0.96760609     0.16500
C345        C  0.75822353  0.00911817  0.31565655    -0.01700
C346        C  0.75254363  0.99899892  0.36188230     0.06900
C347        C  0.74471710  0.96992526  0.36796093    -0.07700
C348        C  0.74171170  0.95107782  0.32849500     0.04300
C349        C  0.74670790  0.96135566  0.28191361    -0.14900
C350        C  0.75538283  0.99042863  0.27650707    -0.08200
C351        C  0.75192952  0.01882452  0.40335198     0.05300
C352        C  0.71523562  0.03822358  0.40195995    -0.09400
C353        C  0.71180395  0.05657091  0.44083282     0.00300
C354        C  0.74645219  0.05623962  0.48232398     0.00100
C355        C  0.78419926  0.03736026  0.48248494    -0.12900
C356        C  0.78681794  0.01859235  0.44390703     0.00600
C357        C  0.67077400  0.07413470  0.43765406     0.39900
C358        C  0.82525500  0.99896113  0.44701359     0.36500
C359        C  0.76706763  0.03866844  0.30744202     0.36200
C360        C  0.73094975  0.92179612  0.33635193     0.37000
N361        N  0.63759060  0.08794042  0.43511200    -0.43800
N362        N  0.85589306  0.98309568  0.44955307    -0.44200
N363        N  0.72204419  0.89836395  0.34274750    -0.41600
N364        N  0.77404604  0.06234174  0.30073084    -0.43000
H365        H  0.75999168  0.99875808  0.24127354     0.13100
H366        H  0.73973148  0.96209026  0.40339848     0.09600
H367        H  0.68824662  0.03838466  0.37079519     0.10700
H368        H  0.81103722  0.03637557  0.51369297     0.16500
C369        C  0.57579634  0.84723690  0.27838244    -0.01700
C370        C  0.53006320  0.85323343  0.25606701     0.06900
C371        C  0.52330756  0.86191069  0.20730073    -0.07700
C372        C  0.56064486  0.86509840  0.18117728     0.04300
C373        C  0.60666860  0.86070843  0.20438036    -0.14900
C374        C  0.61338565  0.85135574  0.25281447    -0.08200
C375        C  0.48921333  0.85272120  0.28334738     0.05300
C376        C  0.49138331  0.86770306  0.32722986    -0.09400
C377        C  0.45229031  0.87074726  0.35094960     0.00300
C378        C  0.40896240  0.85989681  0.32953089     0.00100
C379        C  0.40721799  0.84383510  0.28683196    -0.12900
C380        C  0.44685072  0.83967871  0.26435547     0.00600
C381        C  0.45748128  0.88643812  0.39582952     0.39900
C382        C  0.44304866  0.82200127  0.22171147     0.36500
C383        C  0.58523103  0.83669888  0.32741855     0.36200
C384        C  0.55038365  0.87419028  0.13129897     0.37000
N385        N  0.46244386  0.89875247  0.43208051    -0.43800
N386        N  0.44013914  0.80784019  0.18754018    -0.45800
N387        N  0.54193776  0.88127344  0.09125277    -0.41600
N388        N  0.59287447  0.82830405  0.36675625    -0.43000
H389        H  0.64829219  0.84747453  0.27106513     0.13100
H390        H  0.48863794  0.86710487  0.18974815     0.09600
H391        H  0.52336839  0.87807801  0.34225252     0.10700
H392        H  0.37445590  0.83491998  0.27038652     0.16500
C393        C  0.96246945  0.89269591  0.20781062    -0.01700
C394        C  0.98123957  0.91623400  0.23496775     0.06900
C395        C  0.95304721  0.94002416  0.23875126    -0.07700
C396        C  0.90636771  0.94027896  0.21773730     0.04300
C397        C  0.88672135  0.91610307  0.19265207    -0.14900
C398        C  0.91546724  0.89258995  0.18774434    -0.08200
C399        C  0.03036087  0.91677837  0.25895402     0.05300
C400        C  0.06022039  0.93744870  0.24494838    -0.09400
C401        C  0.10709707  0.93820814  0.26525217     0.00300
C402        C  0.12503297  0.91781544  0.30029718     0.00100
C403        C  0.09476949  0.89762378  0.31525544    -0.12900
C404        C  0.04770917  0.89722272  0.29550892     0.00600
C405        C  0.13633648  0.95924449  0.24749626     0.39900
C406        C  0.01771724  0.87695190  0.31405953     0.36500
C407        C  0.99112245  0.86879109  0.19887447     0.36200
C408        C  0.87924063  0.96527098  0.22442441     0.37000
N409        N  0.15963326  0.97613293  0.23316175    -0.43800
N410        N  0.99366665  0.86072781  0.32895694    -0.44200
N411        N  0.85762652  0.98537506  0.22957185    -0.41600
N412        N  0.01428429  0.84974929  0.19159987    -0.43000
H413        H  0.90121495  0.87407973  0.16802832     0.13100
H414        H  0.96744270  0.95834128  0.25895742     0.09600
H415        H  0.04702169  0.95269796  0.21721972     0.10700
H416        H  0.10790102  0.88217891  0.34267134     0.16500
C417        C  0.22464178  0.22654305  0.95424106    -0.01700
C418        C  0.26160209  0.23770143  0.98710819     0.06900
C419        C  0.30406303  0.22322592  0.99432738    -0.07700
C420        C  0.30992584  0.19771206  0.97033269     0.04300
C421        C  0.27293996  0.18639333  0.93739367    -0.14900
C422        C  0.23078541  0.20131720  0.92910257    -0.08200
C423        C  0.25677546  0.26413702  0.01513453     0.05300
C424        C  0.23056317  0.26372795  0.05360966    -0.09400
C425        C  0.22522608  0.28824581  0.08087012     0.00300
C426        C  0.24615002  0.31384248  0.06953775     0.00100
C427        C  0.27304916  0.31404829  0.03153710    -0.12900
C428        C  0.27893763  0.28945652  0.00478929     0.00600
C429        C  0.19580574  0.28698932  0.11824089     0.39900
C430        C  0.30661577  0.29091384  0.96586804     0.36500
C431        C  0.17997109  0.24039123  0.94617842     0.36200
C432        C  0.35458745  0.18378758  0.97990488     0.37000
N433        N  0.17206843  0.28584104  0.14806490    -0.43800
N434        N  0.32886669  0.29207317  0.93473508    -0.44200
N435        N  0.39026492  0.17255627  0.98779324    -0.41600
N436        N  0.14393913  0.25126127  0.93978959    -0.43000
H437        H  0.20216954  0.19279984  0.90416339     0.13100
H438        H  0.33256766  0.23172090  0.01946340     0.09600
H439        H  0.21377798  0.24425067  0.06196502     0.10700
H440        H  0.28863861  0.33370213  0.02200904     0.16500
C441        C  0.77607730  0.21743783  0.51538264    -0.01700
C442        C  0.75391589  0.24237662  0.52840222     0.06900
C443        C  0.72978281  0.24153119  0.56866750    -0.07700
C444        C  0.72677403  0.21637385  0.59500397     0.04300
C445        C  0.74793516  0.19133202  0.58100061    -0.14900
C446        C  0.77266867  0.19231130  0.54136389    -0.08200
C447        C  0.75573368  0.26936800  0.50046522     0.05300
C448        C  0.74047048  0.26985157  0.45018549    -0.09400
C449        C  0.74475869  0.29428819  0.42223342     0.00300
C450        C  0.76386426  0.31933303  0.44475623     0.00100
C451        C  0.77740679  0.31885974  0.49552244    -0.12900
C452        C  0.77387272  0.29440530  0.52306721     0.00600
C453        C  0.73009754  0.29261537  0.37064223     0.39900
C454        C  0.79115107  0.29533707  0.57427321     0.36500
C455        C  0.80250950  0.21702411  0.47538508     0.36200
C456        C  0.69891534  0.21627934  0.63385450     0.37000
N457        N  0.71846506  0.29108916  0.32925817    -0.43800
N458        N  0.80497591  0.29616607  0.61528711    -0.44200
N459        N  0.67642491  0.21611463  0.66484856    -0.41600
N460        N  0.82348304  0.21672257  0.44316165    -0.43000
H461        H  0.78858521  0.17310880  0.52995100     0.13100
H462        H  0.71217718  0.26041851  0.57877981     0.09600
H463        H  0.72580360  0.25082229  0.43249555     0.10700
H464        H  0.79212556  0.33757202  0.51421743     0.16500
C465        C  0.54202552  0.43338334  0.29862415    -0.01700
C466        C  0.52162419  0.41029374  0.27160562     0.06900
C467        C  0.54848462  0.38613426  0.26621029    -0.07700
C468        C  0.59522149  0.38477786  0.28649422     0.04300
C469        C  0.61630400  0.40828045  0.31274198    -0.14900
C470        C  0.58886096  0.43223753  0.31879196    -0.08200
C471        C  0.47255221  0.41089527  0.24792278     0.05300
C472        C  0.45818298  0.43152187  0.21265076    -0.09400
C473        C  0.41242493  0.43231080  0.18870285     0.00300
C474        C  0.38037600  0.41141514  0.19865227     0.00100
C475        C  0.39514049  0.39087486  0.23432042    -0.12900
C476        C  0.44036505  0.39069053  0.25921243     0.00600
C477        C  0.39969933  0.45495465  0.15462501     0.39900
C478        C  0.45247538  0.37023944  0.29754501     0.36500
C479        C  0.51551733  0.45839842  0.30656078     0.36200
C480        C  0.62051538  0.35932540  0.27776936     0.37000
N481        N  0.38978509  0.47347886  0.12794558    -0.43800
N482        N  0.46229156  0.35400265  0.32844196    -0.44200
N483        N  0.64054891  0.33888218  0.27067075    -0.41600
N484        N  0.49431856  0.47848325  0.31290664    -0.43000
H485        H  0.60408858  0.45034947  0.33891979     0.13100
H486        H  0.53296055  0.36838848  0.24521093     0.09600
H487        H  0.48287352  0.44713821  0.20388063     0.10700
H488        H  0.37088632  0.37524341  0.24395943     0.16500
C489        C  0.98299716  0.37060658  0.30736431    -0.01700
C490        C  0.97853079  0.35780849  0.26119744     0.06900
C491        C  0.93592476  0.34602806  0.24146629    -0.07700
C492        C  0.89728394  0.34813104  0.26582806     0.04300
C493        C  0.90107471  0.36223025  0.31105533    -0.14900
C494        C  0.94452437  0.37247655  0.33202478    -0.08200
C495        C  0.01738121  0.35761909  0.23215733     0.05300
C496        C  0.05804244  0.34266283  0.24945723    -0.09400
C497        C  0.09706067  0.34430102  0.22562521     0.00300
C498        C  0.09538498  0.36070283  0.18300136     0.00100
C499        C  0.05370886  0.37426557  0.16411961    -0.12900
C500        C  0.01507290  0.37323490  0.18870806     0.00600
C501        C  0.13856154  0.32929512  0.24610449     0.39900
C502        C  0.97480947  0.39015754  0.17081279     0.36500
C503        C  0.02580960  0.38368533  0.32872500     0.36200
C504        C  0.85421924  0.33579202  0.24332358     0.37000
N505        N  0.17174426  0.31725959  0.26273670    -0.43800
N506        N  0.94268354  0.40389187  0.15676923    -0.44200
N507        N  0.81979317  0.32589992  0.22511223    -0.41600
N508        N  0.06003825  0.39426055  0.34584363    -0.43000
H509        H  0.94783481  0.38358807  0.36637502     0.13100
H510        H  0.93263463  0.33575438  0.20635309     0.09600
H511        H  0.05971604  0.33039864  0.28255136     0.10700
H512        H  0.05233283  0.38732825  0.13195854     0.16500
C513        C  0.72371313  0.72915898  0.95892310    -0.01700
C514        C  0.75999452  0.73803133  0.99498911     0.06900
C515        C  0.80099275  0.72214028  0.00279507    -0.07700
C516        C  0.80628782  0.69767527  0.97572408     0.04300
C517        C  0.76950391  0.68809754  0.94060874    -0.14900
C518        C  0.72864663  0.70433431  0.93209224    -0.08200
C519        C  0.75725534  0.76476833  0.02291753     0.05300
C520        C  0.75318736  0.76372401  0.07254786    -0.09400
C521        C  0.74912977  0.78872197  0.09927422     0.00300
C522        C  0.74952467  0.81540488  0.07622667     0.00100
C523        C  0.75599800  0.81615699  0.02711903    -0.12900
C524        C  0.75978812  0.79132453  0.00060821     0.00600
C525        C  0.74211698  0.78626150  0.14929226     0.39900
C526        C  0.76605992  0.79362160  0.95032519     0.36500
C527        C  0.68103922  0.74512766  0.94925851     0.36200
C528        C  0.85084773  0.68354091  0.98316973     0.37000
N529        N  0.73645081  0.78428464  0.18939010    -0.43800
N530        N  0.77098025  0.79543494  0.91000064    -0.44200
N531        N  0.88659233  0.67229701  0.98885650    -0.41600
N532        N  0.64698394  0.75809272  0.94151727    -0.43000
H533        H  0.70030207  0.69735925  0.90523798     0.13100
H534        H  0.82943087  0.72928085  0.02941803     0.09600
H535        H  0.75196575  0.74330412  0.09010171     0.10700
H536        H  0.75711138  0.83636218  0.00883269     0.16500
C537        C  0.74162969  0.50382347  0.54719555    -0.01700
C538        C  0.75743311  0.49546127  0.59530443     0.06900
C539        C  0.77278941  0.46738425  0.60429372    -0.07700
C540        C  0.77439563  0.44815952  0.56613368     0.04300
C541        C  0.75925944  0.45673446  0.51801769    -0.14900
C542        C  0.74224832  0.48446553  0.50933826    -0.08200
C543        C  0.75887879  0.51576553  0.63647940     0.05300
C544        C  0.71790671  0.52957040  0.64497754    -0.09400
C545        C  0.71777607  0.54802321  0.68439939     0.00300
C546        C  0.75904953  0.55250251  0.71657130     0.00100
C547        C  0.80010931  0.53921456  0.70757048    -0.12900
C548        C  0.80049509  0.52126707  0.66771695     0.00600
C549        C  0.67442381  0.56069254  0.69274308     0.39900
C550        C  0.84411922  0.50885442  0.65966597     0.36500
C551        C  0.72685446  0.53253630  0.53535337     0.36200
C552        C  0.79099536  0.41974313  0.57727704     0.37000
N553        N  0.63965997  0.57086132  0.69930564    -0.43800
N554        N  0.87911735  0.49889614  0.65337633    -0.44200
N555        N  0.80419832  0.39693315  0.58621848    -0.41600
N556        N  0.71498199  0.55553025  0.52585142    -0.43000
H557        H  0.73137496  0.49153677  0.47241435     0.13100
H558        H  0.78414331  0.46058177  0.64126457     0.09600
H559        H  0.68570185  0.52537876  0.62141935     0.10700
H560        H  0.83190375  0.54252020  0.73235621     0.16500
C561        C  0.73571235  0.50065010  0.17697608    -0.01700
C562        C  0.75885011  0.49218177  0.13825087     0.06900
C563        C  0.78138750  0.46564314  0.14079055    -0.07700
C564        C  0.78081860  0.44764784  0.18103089     0.04300
C565        C  0.75688478  0.45602455  0.21923380    -0.14900
C566        C  0.73443272  0.48253512  0.21643422    -0.08200
C567        C  0.76157571  0.51142097  0.09621167     0.05300
C568        C  0.80485203  0.52191166  0.08849131    -0.09400
C569        C  0.80895282  0.54055560  0.05011488     0.00300
C570        C  0.76887991  0.54945845  0.01848791     0.00100
C571        C  0.72550455  0.53888673  0.02659595    -0.12900
C572        C  0.72165401  0.51993965  0.06459498     0.00600
C573        C  0.85513054  0.54873511  0.04278246     0.39900
C574        C  0.67658965  0.50852060  0.06917978     0.36500
C575        C  0.71542781  0.52855206  0.17848631     0.36200
C576        C  0.80793580  0.42189941  0.18418241     0.37000
N577        N  0.89223102  0.55514312  0.03700144    -0.43800
N578        N  0.64056580  0.49925816  0.07290829    -0.44200
N579        N  0.83008474  0.40140520  0.18713341    -0.41600
N580        N  0.69942328  0.55096403  0.17976775    -0.43000
H581        H  0.71688760  0.48954594  0.24613594     0.13100
H582        H  0.80025797  0.45925877  0.11175186     0.09600
H583        H  0.83570709  0.51530469  0.11243654     0.10700
H584        H  0.69447173  0.54482117  0.00233497     0.16500
C585        C  0.98378666  0.53825560  0.96496699    -0.01700
C586        C  0.98408231  0.50911233  0.97502333     0.06900
C587        C  0.94455065  0.49289655  0.95872912    -0.07700
C588        C  0.90468836  0.50551509  0.93291229     0.04300
C589        C  0.90452663  0.53484682  0.92257276    -0.14900
C590        C  0.94502896  0.55056986  0.93800221    -0.08200
C591        C  0.02538420  0.49554493  0.00299102     0.05300
C592        C  0.02171783  0.48343868  0.04821343    -0.09400
C593        C  0.06026570  0.47070125  0.07573954     0.00300
C594        C  0.10332415  0.47043435  0.05819226     0.00100
C595        C  0.10732381  0.48338891  0.01382680    -0.12900
C596        C  0.06864456  0.49544387  0.98576656     0.00600
C597        C  0.05499866  0.45803612  0.12177433     0.39900
C598        C  0.07362846  0.50622364  0.93832647     0.36500
C599        C  0.02169194  0.55644653  0.98452987     0.36200
C600        C  0.86483216  0.48791368  0.91793843     0.37000
N601        N  0.05093573  0.44798490  0.15876765    -0.43800
N602        N  0.07751900  0.51490541  0.90032807    -0.44200
N603        N  0.83296392  0.47370114  0.90602081    -0.41600
N604        N  0.05183052  0.57111610  0.00033698    -0.43000
H605        H  0.94592451  0.57318849  0.93152371     0.13100
H606        H  0.94476237  0.47039935  0.96660049     0.09600
H607        H  0.98866127  0.48381083  0.06180688     0.10700
H608        H  0.14003431  0.48240272  0.99954142     0.16500
C609        C  0.24631011  0.74014084  0.57006737    -0.01700
C610        C  0.25289065  0.74132668  0.52080201     0.06900
C611        C  0.26056701  0.71608865  0.49682050    -0.07700
C612        C  0.25913528  0.68988200  0.51987946     0.04300
C613        C  0.24905281  0.68839205  0.56812777    -0.14900
C614        C  0.24414712  0.71379977  0.59317745    -0.08200
C615        C  0.25426107  0.76858123  0.49399306     0.05300
C616        C  0.28836702  0.78829631  0.51096199    -0.09400
C617        C  0.29248628  0.81368141  0.48633226     0.00300
C618        C  0.26248558  0.81974905  0.44258798     0.00100
C619        C  0.22857279  0.79980215  0.42508699    -0.12900
C620        C  0.22391690  0.77452098  0.45073591     0.00600
C621        C  0.32884246  0.83277251  0.50672133     0.39900
C622        C  0.18684384  0.75538083  0.43298568     0.36500
C623        C  0.24026605  0.76560948  0.59715824     0.36200
C624        C  0.26849227  0.66486994  0.49293742     0.37000
N625        N  0.35764139  0.84816867  0.52329285    -0.43800
N626        N  0.15706257  0.73999530  0.41911379    -0.44200
N627        N  0.27603000  0.64490675  0.47122912    -0.41600
N628        N  0.23587986  0.78609426  0.61886217    -0.43000
H629        H  0.23658027  0.71309900  0.63009881     0.13100
H630        H  0.26771958  0.71688839  0.45973075     0.09600
H631        H  0.31232530  0.78367863  0.54355797     0.10700
H632        H  0.20506029  0.80424632  0.39214774     0.16500
C633        C  0.23717340  0.49151530  0.79955624    -0.01700
C634        C  0.23897899  0.50205586  0.84700399     0.06900
C635        C  0.23999692  0.53152035  0.85429235    -0.07700
C636        C  0.23879117  0.55045129  0.81508722     0.04300
C637        C  0.23680721  0.53992827  0.76726258    -0.14900
C638        C  0.23596158  0.51027261  0.76052668    -0.08200
C639        C  0.23972675  0.48259915  0.88929630     0.05300
C640        C  0.27993048  0.48060154  0.92349744    -0.09400
C641        C  0.28186606  0.46268146  0.96402792     0.00300
C642        C  0.24245101  0.44664886  0.97159141     0.00100
C643        C  0.20286655  0.44805646  0.93601796    -0.12900
C644        C  0.20122334  0.46569888  0.89543220     0.00600
C645        C  0.32508049  0.46096689  0.99643790     0.39900
C646        C  0.15898827  0.46666618  0.86129276     0.36500
C647        C  0.23749915  0.46143200  0.79011179     0.36200
C648        C  0.23853376  0.58042648  0.82507255     0.37000
N649        N  0.36012208  0.45955139  0.02179144    -0.43800
N650        N  0.12519985  0.46719271  0.83382950    -0.44200
N651        N  0.23823257  0.60447637  0.83301438    -0.41600
N652        N  0.23760429  0.43731829  0.78270689    -0.43000
H653        H  0.23501987  0.50145077  0.72449909     0.13100
H654        H  0.24123434  0.53975456  0.89075422     0.09600
H655        H  0.31005366  0.49303906  0.91834276     0.10700
H656        H  0.17203908  0.43619283  0.94068549     0.16500
C657        C  0.18454042  0.52710359  0.40684343    -0.01700
C658        C  0.22528944  0.51641215  0.39156533     0.06900
C659        C  0.26856453  0.52603274  0.41444694    -0.07700
C660        C  0.27164965  0.54526560  0.45320924     0.04300
C661        C  0.23080351  0.55554425  0.46916246    -0.14900
C662        C  0.18756606  0.54663732  0.44483258    -0.08200
C663        C  0.22327481  0.49594471  0.35070623     0.05300
C664        C  0.20115406  0.50427330  0.30499151    -0.09400
C665        C  0.19954946  0.48630510  0.26496851     0.00300
C666        C  0.22221487  0.45949278  0.26970387     0.00100
C667        C  0.24242179  0.45064582  0.31619632    -0.12900
C668        C  0.24274973  0.46852728  0.35655353     0.00600
C669        C  0.17368110  0.49611922  0.21982462     0.39900
C670        C  0.26244993  0.45818140  0.40378169     0.36500
C671        C  0.13921056  0.51716154  0.38594862     0.36200
C672        C  0.31702865  0.55410048  0.47579767     0.37000
N673        N  0.15281633  0.50408289  0.18385071    -0.43800
N674        N  0.27786797  0.44993102  0.44179923    -0.44200
N675        N  0.35342164  0.56115520  0.49391493    -0.41600
N676        N  0.10291793  0.50912459  0.36932913    -0.43000
H677        H  0.15585547  0.55369379  0.45722761     0.13100
H678        H  0.29992824  0.51832629  0.40222395     0.09600
H679        H  0.18521713  0.52505298  0.30051663     0.10700
H680        H  0.25905973  0.43005258  0.32093780     0.16500
C681        C  0.54803961  0.56363827  0.77938263    -0.01700
C682        C  0.52352443  0.58809118  0.76139889     0.06900
C683        C  0.54479823  0.61455598  0.76939794    -0.07700
C684        C  0.59031574  0.61700570  0.79332129     0.04300
C685        C  0.61589800  0.59237315  0.81034284    -0.14900
C686        C  0.59362566  0.56591214  0.80346382    -0.08200
C687        C  0.47468582  0.58702101  0.73668912     0.05300
C688        C  0.44053191  0.60050565  0.75906132    -0.09400
C689        C  0.39431088  0.60114019  0.73713582     0.00300
C690        C  0.38120893  0.58807672  0.69148382     0.00100
C691        C  0.41519587  0.57410005  0.66928638    -0.12900
C692        C  0.46183727  0.57380850  0.69122445     0.00600
C693        C  0.36079871  0.61465353  0.76326865     0.39900
C694        C  0.49612216  0.56082829  0.66565086     0.36500
C695        C  0.52688440  0.53602256  0.77403479     0.36200
C696        C  0.60954582  0.64517915  0.79847569     0.37000
N697        N  0.33411971  0.62549054  0.78434492    -0.43800
N698        N  0.52366689  0.55044252  0.64517540    -0.44200
N699        N  0.62468534  0.66782308  0.80234289    -0.41600
N700        N  0.50978486  0.51393040  0.76947225    -0.43000
H701        H  0.61208645  0.54673380  0.81609944     0.13100
H702        H  0.52575566  0.63347980  0.75627793     0.09600
H703        H  0.45010080  0.61055755  0.79404069     0.10700
H704        H  0.40555583  0.56411744  0.63429524     0.16500
C705        C  0.06048259  0.63879002  0.75927437    -0.01700
C706        C  0.01889268  0.64783490  0.73119549     0.06900
C707        C  0.01955646  0.65575310  0.68276704    -0.07700
C708        C  0.06033490  0.65354105  0.66153879     0.04300
C709        C  0.10167281  0.64300524  0.68905448    -0.14900
C710        C  0.10114295  0.63661382  0.73831459    -0.08200
C711        C  0.97426145  0.64755361  0.75145432     0.05300
C712        C  0.96963754  0.66408013  0.79242233    -0.09400
C713        C  0.93079623  0.66142978  0.81659265     0.00300
C714        C  0.89502527  0.64238503  0.79904794     0.00100
C715        C  0.89874130  0.62695289  0.75657291    -0.12900
C716        C  0.93793364  0.62914014  0.73308730     0.00600
C717        C  0.92857943  0.67867021  0.85889307     0.39900
C718        C  0.94119362  0.61092328  0.69205352     0.36500
C719        C  0.06177636  0.62997412  0.80905310     0.36200
C720        C  0.05820497  0.66189621  0.61144014     0.37000
N721        N  0.92732892  0.69271794  0.89268257    -0.43800
N722        N  0.94362147  0.59622647  0.65928140    -0.44200
N723        N  0.05660496  0.66864013  0.57132597    -0.41600
N724        N  0.06265650  0.62294281  0.84892516    -0.43000
H725        H  0.13219509  0.62866207  0.76040808     0.13100
H726        H  0.98780072  0.66315070  0.66120562     0.09600
H727        H  0.99723857  0.67849389  0.80642102     0.10700
H728        H  0.87181961  0.61200940  0.74285286     0.16500
C729        C  0.92964223  0.50707797  0.48831884    -0.01700
C730        C  0.97294012  0.50484888  0.47138967     0.06900
C731        C  0.97628512  0.48952822  0.42891882    -0.07700
C732        C  0.93764424  0.47551187  0.40442085     0.04300
C733        C  0.89475858  0.47709012  0.42226362    -0.14900
C734        C  0.89088208  0.49360303  0.46322667    -0.08200
C735        C  0.01529779  0.51763737  0.49832115     0.05300
C736        C  0.05232714  0.50002787  0.51794188    -0.09400
C737        C  0.09228065  0.51133738  0.54528649     0.00300
C738        C  0.09542541  0.54085665  0.55316034     0.00100
C739        C  0.05817262  0.55823555  0.53285352    -0.12900
C740        C  0.01875096  0.54705954  0.50551516     0.00600
C741        C  0.12855155  0.49218637  0.56583808     0.39900
C742        C  0.98272481  0.56635592  0.48454229     0.36500
C743        C  0.92473744  0.52144569  0.53304492     0.36200
C744        C  0.94280220  0.45928118  0.36156806     0.37000
N745        N  0.15749115  0.47675447  0.58246514    -0.43800
N746        N  0.95386480  0.58192669  0.46821120    -0.44200
N747        N  0.94668338  0.44629359  0.32716566    -0.41600
N748        N  0.92080785  0.53307197  0.56876902    -0.43000
H749        H  0.85823393  0.49422291  0.47783854     0.13100
H750        H  0.00943606  0.48801904  0.41553904     0.09600
H751        H  0.04963620  0.47729885  0.51246130     0.10700
H752        H  0.06005074  0.58127186  0.53729754     0.16500
loop_ 
_geom_bond_atom_site_label_1 
_geom_bond_atom_site_label_2 
_geom_bond_distance 
_geom_bond_site_symmetry_2 
_ccdc_geom_bond_type 
Fe1          O17   2.049       .  S
Fe1           O7   2.123       .  S
Fe1          O14   2.137       .  S
Fe1           O6   2.037       .  S
Fe1          O12   1.926       .  S
Fe2           O5   2.019       .  S
Fe2           O9   2.085       .  S
Fe2          O13   2.021       .  S
Fe2          O18   2.092       .  S
Fe2          O12   1.926       .  S
Fe3          O21   2.125       .  S
Fe3           O8   2.054       .  S
Fe3          O15   2.040       .  S
Fe3           O4   2.115       .  S
Fe3          O12   1.940       .  S
O4           C11   1.279       .  A
O5           C19   1.262       .  A
O6           C11   1.266       .  A
O7           C10   1.283       .  A
O8           C20   1.268       .  A
O9           C22   1.269       .  A
C10          O15   1.269       .  A
C10         C637   1.500       .  S
C11         C690   1.483       .  S
O13          C16   1.266       .  A
O14          C16   1.287       .  A
C16         C613   1.490       .  S
O17          C22   1.265       .  A
O18          C20   1.274       .  A
C19          O21   1.280       .  A
C19         C738   1.484       .  S
C20         C661   1.485       .  S
C22         C709   1.495       .  S
Fe23         O39   2.049       .  S
Fe23         O29   2.114       .  S
Fe23         O36   2.131       .  S
Fe23         O28   2.048       .  S
Fe23         O34   1.932       .  S
Fe24         O27   2.022       .  S
Fe24         O31   2.099       .  S
Fe24         O35   2.032       .  S
Fe24         O40   2.118       .  S
Fe24         O34   1.923       .  S
Fe25         O43   2.116       .  S
Fe25         O30   2.048       .  S
Fe25         O37   2.035       .  S
Fe25         O26   2.108       .  S
Fe25         O34   1.941       .  S
O26          C33   1.279       .  A
O27          C41   1.258       .  A
O28          C33   1.268       .  A
O29          C32   1.280       .  A
O30          C42   1.271       .  A
O31          C44   1.273       .  A
C32          O37   1.267       .  A
C32         C546   1.474       .  S
C33         C685   1.500       .  S
O35          C38   1.268       .  A
O36          C38   1.284       .  A
C38         C517   1.489       .  S
O39          C44   1.265       .  A
O40          C42   1.281       .  A
C41          O43   1.274       .  A
C41         C589   1.487       .  S
C42         C570   1.497   1_556  S
C44         C714   1.487       .  S
Fe45         O61   2.130       .  S
Fe45         O51   2.039       .  S
Fe45         O58   2.033       .  S
Fe45         O50   2.130       .  S
Fe45         O56   1.936       .  S
Fe46         O49   2.109       .  S
Fe46         O53   2.033       .  S
Fe46         O57   2.092       .  S
Fe46         O62   2.031       .  S
Fe46         O56   1.936       .  S
Fe47         O65   2.039       .  S
Fe47         O52   2.100       .  S
Fe47         O59   2.091       .  S
Fe47         O48   2.028       .  S
Fe47         O56   1.938       .  S
O48          C55   1.266       .  A
O49          C63   1.277       .  A
O50          C55   1.284       .  A
O51          C54   1.264       .  A
O52          C64   1.275       .  A
O53          C66   1.268       .  A
C54          O59   1.275       .  A
C54         C469   1.489       .  S
C55         C565   1.486       .  S
O57          C60   1.273       .  A
O58          C60   1.262       .  A
C60         C493   1.481       .  S
O61          C66   1.284       .  A
O62          C64   1.263       .  A
C63          O65   1.266       .  A
C63         C541   1.482       .  S
C64         C733   1.467       .  S
C66         C450   1.504       .  S
Fe67         O83   2.125       .  S
Fe67         O73   2.046       .  S
Fe67         O80   2.038       .  S
Fe67         O72   2.116       .  S
Fe67         O78   1.947       .  S
Fe68         O71   2.097       .  S
Fe68         O75   2.043       .  S
Fe68         O79   2.087       .  S
Fe68         O84   2.033       .  S
Fe68         O78   1.941       .  S
Fe69         O87   2.058       .  S
Fe69         O74   2.097       .  S
Fe69         O81   2.094       .  S
Fe69         O70   2.031       .  S
Fe69         O78   1.951       .  S
O70          C77   1.266       .  A
O71          C85   1.276       .  A
O72          C77   1.282       .  A
O73          C76   1.268       .  A
O74          C86   1.274       .  A
O75          C88   1.269       .  A
C76          O81   1.274       .  A
C76         C474   1.492       .  S
C77         C666   1.494       .  S
O79          C82   1.270       .  A
O80          C82   1.262       .  A
C82         C498   1.478       .  S
O83          C88   1.284       .  A
O84          C86   1.262       .  A
C85          O87   1.269       .  A
C85         C642   1.499   1_554  S
C86         C594   1.465       .  S
C88         C426   1.484       .  S
Fe89        O105   2.129       .  S
Fe89         O95   2.059       .  S
Fe89        O102   2.059       .  S
Fe89         O94   2.119       .  S
Fe89        O100   1.943       .  S
Fe90         O93   2.098       .  S
Fe90         O97   2.032       .  S
Fe90        O101   2.087       .  S
Fe90        O106   2.029       .  S
Fe90        O100   1.934       .  S
Fe91        O109   2.056       .  S
Fe91         O96   2.103       .  S
Fe91        O103   2.089       .  S
Fe91         O92   2.039       .  S
Fe91        O100   1.942       .  S
O92          C99   1.269       .  A
O93         C107   1.276       .  A
O94          C99   1.281       .  A
O95          C98   1.270       .  A
O96         C108   1.274       .  A
O97         C110   1.268       .  A
C98         O103   1.275       .  A
C98         C397   1.489       .  S
C99         C349   1.491       .  S
O101        C104   1.271       .  A
O102        C104   1.268       .  A
C104        C373   1.494       .  S
O105        C110   1.284       .  A
O106        C108   1.263       .  A
C107        O109   1.269       .  A
C107        C330   1.486   1_554  S
C108        C301   1.471       .  S
C110        C522   1.494       .  S
Fe111       O127   2.135       .  S
Fe111       O117   2.060       .  S
Fe111       O124   2.051       .  S
Fe111       O116   2.124       .  S
Fe111       O122   1.941       .  S
Fe112       O115   2.098       .  S
Fe112       O119   2.020       .  S
Fe112       O123   2.103       .  S
Fe112       O128   2.015       .  S
Fe112       O122   1.924       .  S
Fe113       O131   2.039       .  S
Fe113       O118   2.105       .  S
Fe113       O125   2.094       .  S
Fe113       O114   2.025       .  S
Fe113       O122   1.937       .  S
O114        C121   1.265       .  A
O115        C129   1.276       .  A
O116        C121   1.282       .  A
O117        C120   1.271       .  A
O118        C130   1.274       .  A
O119        C132   1.259       .  A
C120        O125   1.276       .  A
C120        C402   1.485       .  S
C121        C282   1.487       .  S
O123        C126   1.276       .  A
O124        C126   1.268       .  A
C126        C378   1.491       .  S
O127        C132   1.282       .  A
O128        C130   1.258       .  A
C129        O131   1.267       .  A
C129        C258   1.477       .  S
C130        C234   1.464       .  S
C132        C618   1.490       .  S
Fe133       O149   2.045       .  S
Fe133       O139   2.117       .  S
Fe133       O146   2.115       .  S
Fe133       O138   2.041       .  S
Fe133       O144   1.929       .  S
Fe134       O137   2.034       .  S
Fe134       O141   2.094       .  S
Fe134       O145   2.035       .  S
Fe134       O150   2.102       .  S
Fe134       O144   1.931       .  S
Fe135       O153   2.096       .  S
Fe135       O140   2.052       .  S
Fe135       O147   2.032       .  S
Fe135       O136   2.105       .  S
Fe135       O144   1.939       .  S
O136        C143   1.276       .  A
O137        C151   1.263       .  A
O138        C143   1.264       .  A
O139        C142   1.281       .  A
O140        C152   1.270       .  A
O141        C154   1.274       .  A
C142        O147   1.267       .  A
C142        C253   1.478       .  S
C143        C205   1.493       .  S
O145        C148   1.267       .  A
O146        C148   1.280       .  A
C148        C421   1.485       .  S
O149        C154   1.266       .  A
O150        C152   1.278       .  A
C151        O153   1.274       .  A
C151        C306   1.485       .  S
C152        C277   1.483   1_556  S
C154        C186   1.483       .  S
Fe155       O171   2.039       .  S
Fe155       O161   2.120       .  S
Fe155       O168   2.126       .  S
Fe155       O160   2.043       .  S
Fe155       O166   1.935       .  S
Fe156       O159   2.023       .  S
Fe156       O163   2.104       .  S
Fe156       O167   2.037       .  S
Fe156       O172   2.100       .  S
Fe156       O166   1.934       .  S
Fe157       O175   2.101       .  S
Fe157       O162   2.051       .  S
Fe157       O169   2.036       .  S
Fe157       O158   2.101       .  S
Fe157       O166   1.940       .  S
O158        C165   1.277       .  A
O159        C173   1.263       .  A
O160        C165   1.268       .  A
O161        C164   1.280       .  A
O162        C174   1.269       .  A
O163        C176   1.276       .  A
C164        O169   1.267       .  A
C164        C325   1.500       .  S
C165        C210   1.487       .  S
O167        C170   1.266       .  A
O168        C170   1.282       .  A
C170        C445   1.484       .  S
O171        C176   1.264       .  A
O172        C174   1.276       .  A
C173        O175   1.276       .  A
C173        C229   1.469       .  S
C174        C354   1.500       .  S
C176        C181   1.498       .  S
C177        C178   1.412       .  A
C177        C182   1.405       .  A
C177        C191   1.444       .  S
C178        C183   1.492       .  S
C178        C179   1.400       .  A
C179        C180   1.398       .  A
C179        H198   1.085       .  S
C180        C181   1.423       .  A
C180        C192   1.445       .  S
C181        C182   1.409       .  A
C182        H197   1.084       .  S
C183        C184   1.402       .  A
C183        C188   1.414       .  A
C184        C185   1.397       .  A
C184        H199   1.084       .  S
C185        C186   1.415       .  A
C185        C189   1.444       .  S
C186        C187   1.405       .  A
C187        C188   1.404       .  A
C187        H200   1.084       .  S
C188        C190   1.444       .  S
C189        N193   1.157       .  T
C190        N194   1.157       .  T
C191        N196   1.157       .  T
C192        N195   1.158       .  T
C201        C202   1.412       .  A
C201        C206   1.405       .  A
C201        C215   1.443       .  S
C202        C207   1.490   1_455  S
C202        C203   1.400       .  A
C203        C204   1.397       .  A
C203        H222   1.085       .  S
C204        C205   1.421       .  A
C204        C216   1.446       .  S
C205        C206   1.408       .  A
C206        H221   1.084       .  S
C207        C208   1.401       .  A
C207        C212   1.413       .  A
C208        C209   1.397       .  A
C208        H223   1.085       .  S
C209        C210   1.419       .  A
C209        C213   1.446       .  S
C210        C211   1.406       .  A
C211        C212   1.405       .  A
C211        H224   1.084       .  S
C212        C214   1.443       .  S
C213        N217   1.157       .  T
C214        N218   1.157   1_655  T
C215        N220   1.157       .  T
C216        N219   1.158       .  T
C225        C226   1.408       .  A
C225        C230   1.398       .  A
C225        C239   1.444   1_545  S
C226        C231   1.470   1_545  S
C226        C227   1.398       .  A
C227        C228   1.393       .  A
C227        H246   1.085       .  S
C228        C229   1.414       .  A
C228        C240   1.446       .  S
C229        C230   1.405       .  A
C230        H245   1.085       .  S
C231        C232   1.395       .  A
C231        C236   1.411   1_565  A
C232        C233   1.390       .  A
C232        H247   1.086       .  S
C233        C234   1.414       .  A
C233        C237   1.446       .  S
C234        C235   1.400       .  A
C235        C236   1.401   1_565  A
C235        H248   1.083       .  S
C236        C238   1.443       .  S
C237        N241   1.157       .  T
C238        N242   1.157       .  T
C239        N244   1.157       .  T
C240        N243   1.157       .  T
C249        C250   1.411       .  A
C249        C254   1.397       .  A
C249        C263   1.445   1_545  S
C250        C255   1.488   1_545  S
C250        C251   1.406       .  A
C251        C252   1.403       .  A
C251        H270   1.085       .  S
C252        C253   1.412       .  A
C252        C264   1.444       .  S
C253        C254   1.405       .  A
C254        H269   1.085       .  S
C255        C256   1.407       .  A
C255        C260   1.410   1_565  A
C256        C257   1.402       .  A
C256        H271   1.085       .  S
C257        C258   1.410       .  A
C257        C261   1.444       .  S
C258        C259   1.405       .  A
C259        C260   1.397   1_565  A
C259        H272   1.085       .  S
C260        C262   1.444       .  S
C261        N265   1.157       .  T
C262        N266   1.157       .  T
C263        N268   1.157       .  T
C264        N267   1.157       .  T
C273        C274   1.413       .  A
C273        C278   1.399       .  A
C273        C287   1.445       .  S
C274        C279   1.493   1_545  S
C274        C275   1.407       .  A
C275        C276   1.403       .  A
C275        H294   1.084       .  S
C276        C277   1.411       .  A
C276        C288   1.443       .  S
C277        C278   1.405       .  A
C278        H293   1.085       .  S
C279        C280   1.401       .  A
C279        C284   1.415       .  A
C280        C281   1.396       .  A
C280        H295   1.085   1_565  S
C281        C282   1.418       .  A
C281        C285   1.444       .  S
C282        C283   1.405       .  A
C283        C284   1.406       .  A
C283        H296   1.084       .  S
C284        C286   1.443       .  S
C285        N289   1.157       .  T
C286        N290   1.157       .  T
C287        N292   1.157   1_545  T
C288        N291   1.157       .  T
C297        C298   1.406   1_556  A
C297        C302   1.390   1_556  A
C297        C311   1.445       .  S
C298        C303   1.479   1_564  S
C298        C299   1.407   1_565  A
C299        C300   1.403   1_545  A
C299        H318   1.084       .  S
C300        C301   1.408       .  A
C300        C312   1.443   1_565  S
C301        C302   1.405       .  A
C302        H317   1.086       .  S
C303        C304   1.402   1_545  A
C303        C308   1.406       .  A
C304        C305   1.396   1_565  A
C304        H319   1.085       .  S
C305        C306   1.417       .  A
C305        C309   1.444   1_545  S
C306        C307   1.411       .  A
C307        C308   1.398       .  A
C307        H320   1.084       .  S
C308        C310   1.445       .  S
C309        N313   1.157       .  T
C310        N314   1.157       .  T
C311        N316   1.157       .  T
C312        N315   1.157       .  T
C321        C322   1.407   1_565  A
C321        C326   1.398   1_565  A
C321        C335   1.445       .  S
C322        C327   1.492   1_545  S
C322        C323   1.406       .  A
C323        C324   1.409       .  A
C323        H342   1.085       .  S
C324        C325   1.418       .  A
C324        C336   1.443       .  S
C325        C326   1.412       .  A
C326        H341   1.084       .  S
C327        C328   1.406       .  A
C327        C332   1.412       .  A
C328        C329   1.406       .  A
C328        H343   1.084       .  S
C329        C330   1.413       .  A
C329        C333   1.443       .  S
C330        C331   1.406       .  A
C331        C332   1.400       .  A
C331        H344   1.085       .  S
C332        C334   1.445       .  S
C333        N337   1.157   1_556  T
C334        N338   1.157       .  T
C335        N340   1.157       .  T
C336        N339   1.157       .  T
C345        C346   1.407   1_545  A
C345        C350   1.397   1_545  A
C345        C359   1.444       .  S
C346        C351   1.490   1_565  S
C346        C347   1.407       .  A
C347        C348   1.408       .  A
C347        H366   1.085       .  S
C348        C349   1.414       .  A
C348        C360   1.443       .  S
C349        C350   1.409       .  A
C350        H365   1.085       .  S
C351        C352   1.401       .  A
C351        C356   1.408       .  A
C352        C353   1.402       .  A
C352        H367   1.085       .  S
C353        C354   1.422       .  A
C353        C357   1.444       .  S
C354        C355   1.412       .  A
C355        C356   1.404       .  A
C355        H368   1.084       .  S
C356        C358   1.444   1_545  S
C357        N361   1.157       .  T
C358        N362   1.157       .  T
C359        N364   1.157       .  T
C360        N363   1.157       .  T
C369        C370   1.415       .  A
C369        C374   1.404       .  A
C369        C383   1.444       .  S
C370        C375   1.502       .  S
C370        C371   1.407       .  A
C371        C372   1.402       .  A
C371        H390   1.084       .  S
C372        C373   1.417       .  A
C372        C384   1.445       .  S
C373        C374   1.407       .  A
C374        H389   1.085       .  S
C375        C376   1.407       .  A
C375        C380   1.415       .  A
C376        C377   1.404       .  A
C376        H391   1.084       .  S
C377        C378   1.415       .  A
C377        C381   1.444       .  S
C378        C379   1.406       .  A
C379        C380   1.404       .  A
C379        H392   1.085       .  S
C380        C382   1.444       .  S
C381        N385   1.157       .  T
C382        N386   1.157       .  T
C383        N388   1.157       .  T
C384        N387   1.158       .  T
C393        C394   1.412       .  A
C393        C398   1.403       .  A
C393        C407   1.444       .  S
C394        C399   1.490   1_655  S
C394        C395   1.402       .  A
C395        C396   1.401       .  A
C395        H414   1.085       .  S
C396        C397   1.418       .  A
C396        C408   1.445       .  S
C397        C398   1.406       .  A
C398        H413   1.084       .  S
C399        C400   1.403       .  A
C399        C404   1.413       .  A
C400        C401   1.402       .  A
C400        H415   1.085       .  S
C401        C402   1.416       .  A
C401        C405   1.445       .  S
C402        C403   1.405       .  A
C403        C404   1.402       .  A
C403        H416   1.085       .  S
C404        C406   1.444       .  S
C405        N409   1.157       .  T
C406        N410   1.157   1_455  T
C407        N412   1.157   1_655  T
C408        N411   1.157       .  T
C417        C418   1.413       .  A
C417        C422   1.406       .  A
C417        C431   1.442       .  S
C418        C423   1.490   1_556  S
C418        C419   1.400       .  A
C419        C420   1.400       .  A
C419        H438   1.085   1_556  S
C420        C421   1.418       .  A
C420        C432   1.446       .  S
C421        C422   1.403       .  A
C422        H437   1.085       .  S
C423        C424   1.404       .  A
C423        C428   1.411       .  A
C424        C425   1.405       .  A
C424        H439   1.085       .  S
C425        C426   1.412       .  A
C425        C429   1.443       .  S
C426        C427   1.406       .  A
C427        C428   1.403       .  A
C427        H440   1.085       .  S
C428        C430   1.444   1_554  S
C429        N433   1.157       .  T
C430        N434   1.157       .  T
C431        N436   1.157       .  T
C432        N435   1.157       .  T
C441        C442   1.413       .  A
C441        C446   1.402       .  A
C441        C455   1.444       .  S
C442        C447   1.499       .  S
C442        C443   1.409       .  A
C443        C444   1.407       .  A
C443        H462   1.084       .  S
C444        C445   1.412       .  A
C444        C456   1.444       .  S
C445        C446   1.405       .  A
C446        H461   1.085       .  S
C447        C448   1.409       .  A
C447        C452   1.408       .  A
C448        C449   1.409       .  A
C448        H463   1.084       .  S
C449        C450   1.417       .  A
C449        C453   1.443       .  S
C450        C451   1.414       .  A
C451        C452   1.399       .  A
C451        H464   1.084       .  S
C452        C454   1.445       .  S
C453        N457   1.157       .  T
C454        N458   1.157       .  T
C455        N460   1.157       .  T
C456        N459   1.157       .  T
C465        C466   1.409       .  A
C465        C470   1.400       .  A
C465        C479   1.443       .  S
C466        C471   1.486       .  S
C466        C467   1.401       .  A
C467        C468   1.399       .  A
C467        H486   1.085       .  S
C468        C469   1.422       .  A
C468        C480   1.446       .  S
C469        C470   1.407       .  A
C470        H485   1.084       .  S
C471        C472   1.404       .  A
C471        C476   1.408       .  A
C472        C473   1.403       .  A
C472        H487   1.085       .  S
C473        C474   1.416       .  A
C473        C477   1.442       .  S
C474        C475   1.410       .  A
C475        C476   1.398       .  A
C475        H488   1.084       .  S
C476        C478   1.445       .  S
C477        N481   1.157       .  T
C478        N482   1.157       .  T
C479        N484   1.157       .  T
C480        N483   1.158       .  T
C489        C490   1.411       .  A
C489        C494   1.399       .  A
C489        C503   1.444   1_655  S
C490        C495   1.484   1_655  S
C490        C491   1.401       .  A
C491        C492   1.399       .  A
C491        H510   1.085       .  S
C492        C493   1.416       .  A
C492        C504   1.445       .  S
C493        C494   1.404       .  A
C494        H509   1.084       .  S
C495        C496   1.401       .  A
C495        C500   1.412       .  A
C496        C497   1.399       .  A
C496        H511   1.085       .  S
C497        C498   1.414       .  A
C497        C501   1.444       .  S
C498        C499   1.404       .  A
C499        C500   1.401       .  A
C499        H512   1.085       .  S
C500        C502   1.445   1_455  S
C501        N505   1.157       .  T
C502        N506   1.157       .  T
C503        N508   1.157       .  T
C504        N507   1.157       .  T
C513        C514   1.415       .  A
C513        C518   1.409       .  A
C513        C527   1.443       .  S
C514        C519   1.491   1_556  S
C514        C515   1.398   1_556  A
C515        C516   1.400   1_554  A
C515        H534   1.085       .  S
C516        C517   1.419       .  A
C516        C528   1.445       .  S
C517        C518   1.404       .  A
C518        H533   1.084       .  S
C519        C520   1.407       .  A
C519        C524   1.407       .  A
C520        C521   1.410       .  A
C520        H535   1.085       .  S
C521        C522   1.415       .  A
C521        C525   1.443       .  S
C522        C523   1.409       .  A
C523        C524   1.399       .  A
C523        H536   1.085       .  S
C524        C526   1.444   1_554  S
C525        N529   1.157       .  T
C526        N530   1.157       .  T
C527        N532   1.157       .  T
C528        N531   1.157       .  T
C537        C538   1.410       .  A
C537        C542   1.398       .  A
C537        C551   1.445       .  S
C538        C543   1.492       .  S
C538        C539   1.408       .  A
C539        C540   1.404       .  A
C539        H558   1.085       .  S
C540        C541   1.410       .  A
C540        C552   1.443       .  S
C541        C542   1.407       .  A
C542        H557   1.085       .  S
C543        C544   1.407       .  A
C543        C548   1.412       .  A
C544        C545   1.403       .  A
C544        H559   1.084       .  S
C545        C546   1.410       .  A
C545        C549   1.444       .  S
C546        C547   1.403       .  A
C547        C548   1.399       .  A
C547        H560   1.085       .  S
C548        C550   1.444       .  S
C549        N553   1.157       .  T
C550        N554   1.157       .  T
C551        N556   1.157       .  T
C552        N555   1.157       .  T
C561        C562   1.410       .  A
C561        C566   1.399       .  A
C561        C575   1.445       .  S
C562        C567   1.495       .  S
C562        C563   1.409       .  A
C563        C564   1.410       .  A
C563        H582   1.084       .  S
C564        C565   1.410       .  A
C564        C576   1.443       .  S
C565        C566   1.407       .  A
C566        H581   1.085       .  S
C567        C568   1.402       .  A
C567        C572   1.412       .  A
C568        C569   1.405       .  A
C568        H583   1.085       .  S
C569        C570   1.420       .  A
C569        C573   1.444       .  S
C570        C571   1.409       .  A
C571        C572   1.404       .  A
C571        H584   1.084       .  S
C572        C574   1.444       .  S
C573        N577   1.157       .  T
C574        N578   1.157       .  T
C575        N580   1.157       .  T
C576        N579   1.157       .  T
C585        C586   1.404       .  A
C585        C590   1.389       .  A
C585        C599   1.446   1_655  S
C586        C591   1.480   1_656  S
C586        C587   1.406       .  A
C587        C588   1.406       .  A
C587        H606   1.085       .  S
C588        C589   1.415       .  A
C588        C600   1.443       .  S
C589        C590   1.411       .  A
C590        H605   1.084       .  S
C591        C592   1.403       .  A
C591        C596   1.412   1_554  A
C592        C593   1.399       .  A
C592        H607   1.085   1_455  S
C593        C594   1.411       .  A
C593        C597   1.445       .  S
C594        C595   1.400       .  A
C595        C596   1.395   1_554  A
C595        H608   1.085   1_554  S
C596        C598   1.445       .  S
C597        N601   1.157       .  T
C598        N602   1.157       .  T
C599        N604   1.157   1_556  T
C600        N603   1.157       .  T
C609        C610   1.415       .  A
C609        C614   1.407       .  A
C609        C623   1.444       .  S
C610        C615   1.492       .  S
C610        C611   1.399       .  A
C611        C612   1.398       .  A
C611        H630   1.085       .  S
C612        C613   1.420       .  A
C612        C624   1.446       .  S
C613        C614   1.405       .  A
C614        H629   1.084       .  S
C615        C616   1.397       .  A
C615        C620   1.416       .  A
C616        C617   1.396       .  A
C616        H631   1.085       .  S
C617        C618   1.423       .  A
C617        C621   1.447       .  S
C618        C619   1.404       .  A
C619        C620   1.409       .  A
C619        H632   1.084       .  S
C620        C622   1.443       .  S
C621        N625   1.157       .  T
C622        N626   1.157       .  T
C623        N628   1.157       .  T
C624        N627   1.157       .  T
C633        C634   1.408       .  A
C633        C638   1.400       .  A
C633        C647   1.445       .  S
C634        C639   1.493       .  S
C634        C635   1.406       .  A
C635        C636   1.409       .  A
C635        H654   1.084       .  S
C636        C637   1.417       .  A
C636        C648   1.443       .  S
C637        C638   1.413       .  A
C638        H653   1.084       .  S
C639        C640   1.403       .  A
C639        C644   1.410       .  A
C640        C641   1.407       .  A
C640        H655   1.085       .  S
C641        C642   1.419       .  A
C641        C645   1.442       .  S
C642        C643   1.410       .  A
C643        C644   1.401       .  A
C643        H656   1.084       .  S
C644        C646   1.444       .  S
C645        N649   1.157   1_556  T
C646        N650   1.157       .  T
C647        N652   1.157       .  T
C648        N651   1.157       .  T
C657        C658   1.409       .  A
C657        C662   1.398       .  A
C657        C671   1.445       .  S
C658        C663   1.489       .  S
C658        C659   1.406       .  A
C659        C660   1.405       .  A
C659        H678   1.082       .  S
C660        C661   1.413       .  A
C660        C672   1.444       .  S
C661        C662   1.408       .  A
C662        H677   1.083       .  S
C663        C664   1.399       .  A
C663        C668   1.411       .  A
C664        C665   1.397       .  A
C664        H679   1.083       .  S
C665        C666   1.423       .  A
C665        C669   1.446       .  S
C666        C667   1.407       .  A
C667        C668   1.406       .  A
C667        H680   1.084       .  S
C668        C670   1.443       .  S
C669        N673   1.158       .  T
C670        N674   1.157       .  T
C671        N676   1.157       .  T
C672        N675   1.157       .  T
C681        C682   1.409       .  A
C681        C686   1.404       .  A
C681        C695   1.443       .  S
C682        C687   1.490       .  S
C682        C683   1.401       .  A
C683        C684   1.401       .  A
C683        H702   1.085       .  S
C684        C685   1.423       .  A
C684        C696   1.445       .  S
C685        C686   1.411       .  A
C686        H701   1.084       .  S
C687        C688   1.399       .  A
C687        C692   1.415       .  A
C688        C689   1.397       .  A
C688        H703   1.085       .  S
C689        C690   1.417       .  A
C689        C693   1.446       .  S
C690        C691   1.404       .  A
C691        C692   1.408       .  A
C691        H704   1.084       .  S
C692        C694   1.443       .  S
C693        N697   1.157       .  T
C694        N698   1.157       .  T
C695        N700   1.157       .  T
C696        N699   1.158       .  T
C705        C706   1.409       .  A
C705        C710   1.398       .  A
C705        C719   1.445       .  S
C706        C711   1.491   1_455  S
C706        C707   1.404       .  A
C707        C708   1.405       .  A
C707        H726   1.085   1_455  S
C708        C709   1.420       .  A
C708        C720   1.444       .  S
C709        C710   1.409       .  A
C710        H725   1.084       .  S
C711        C712   1.405       .  A
C711        C716   1.411       .  A
C712        C713   1.404       .  A
C712        H727   1.085       .  S
C713        C714   1.413       .  A
C713        C717   1.442       .  S
C714        C715   1.408       .  A
C715        C716   1.400       .  A
C715        H728   1.085       .  S
C716        C718   1.445       .  S
C717        N721   1.157       .  T
C718        N722   1.157       .  T
C719        N724   1.157       .  T
C720        N723   1.158       .  T
C729        C730   1.413       .  A
C729        C734   1.396       .  A
C729        C743   1.444       .  S
C730        C735   1.480   1_655  S
C730        C731   1.403       .  A
C731        C732   1.399       .  A
C731        H750   1.086   1_655  S
C732        C733   1.412       .  A
C732        C744   1.445       .  S
C733        C734   1.401       .  A
C734        H749   1.088       .  S
C735        C736   1.406       .  A
C735        C740   1.406       .  A
C736        C737   1.404       .  A
C736        H751   1.086       .  S
C737        C738   1.412       .  A
C737        C741   1.442       .  S
C738        C739   1.410       .  A
C739        C740   1.390       .  A
C739        H752   1.096       .  S
C740        C742   1.445   1_455  S
C741        N745   1.157       .  T
C742        N746   1.157       .  T
C743        N748   1.157       .  T
C744        N747   1.157       .  T
