geometry optimzed in LAMMPS
_audit_creation_date              2020-12-01 
_audit_creation_method            'lammps2cif' 
_symmetry_space_group_name_H-M    'P1' 
_symmetry_Int_Tables_number       1 
_symmetry_cell_setting            triclinic 
loop_ 
_symmetry_equiv_pos_as_xyz 
  x,y,z 
_cell_length_a                    57.6515872 
_cell_length_b                    47.285096026389404 
_cell_length_c                    27.476574453820888 
_cell_angle_alpha                 90.15193361265223 
_cell_angle_beta                  89.91431466591021 
_cell_angle_gamma                 89.63248416943992 
loop_ 
_atom_site_label 
_atom_site_type_symbol 
_atom_site_fract_x 
_atom_site_fract_y 
_atom_site_fract_z 
_atom_site_charge 
O1          O  0.40185331  0.80774046  0.59616986    -0.82100
C2          C  0.32681300  0.87281783  0.64867501     0.97300
O3          O  0.34480897  0.86244800  0.66767171    -0.71200
O4          O  0.37778908  0.82471420  0.67978874    -0.74800
Al5        Al  0.37382500  0.85730178  0.63717090     1.49000
C6          C  0.36982037  0.79976047  0.67742642     0.92500
O7          O  0.33991901  0.78993182  0.55380461    -0.81000
O8          O  0.34851324  0.83440430  0.49203135    -0.74600
Al9        Al  0.37007642  0.80271251  0.57651602     1.90100
O10         O  0.31804181  0.82703885  0.56785513    -0.73600
O11         O  0.36004504  0.88279751  0.53220919    -0.73500
O12         O  0.32605241  0.87690358  0.60312285    -0.79100
O13         O  0.37268972  0.89413717  0.60468597    -0.77300
O14         O  0.36135613  0.83806224  0.58847455    -1.13500
O15         O  0.40389702  0.85334255  0.61124423    -0.72700
C16         C  0.41364029  0.82990680  0.60280695     0.98100
C17         C  0.32000499  0.80139950  0.55643646     0.94400
Al18       Al  0.33996214  0.85418345  0.55167157     1.55600
O19         O  0.36127800  0.79054820  0.63844808    -0.77300
C20         C  0.36968814  0.90023419  0.56005086     0.98600
C21         C  0.36608034  0.81946899  0.48067896     0.93500
O22         O  0.37996275  0.81138272  0.51309508    -0.82600
O23         O  0.62052384  0.81697166  0.52229227    -0.82100
C24         C  0.67464126  0.87691379  0.65816491     0.97300
O25         O  0.67441646  0.88211483  0.61291356    -0.71200
O26         O  0.68271262  0.83304759  0.57335486    -0.74800
Al27       Al  0.65981589  0.86029980  0.56123785     1.49000
C28         C  0.68077586  0.80718909  0.56352694     0.92500
O29         O  0.64106153  0.79408412  0.64683063    -0.81000
O30         O  0.59679467  0.85657952  0.62807168    -0.74600
Al31       Al  0.63119369  0.80758658  0.58554573     1.90100
O32         O  0.62565106  0.82762386  0.69161447    -0.73600
O33         O  0.62731715  0.89830803  0.62025399    -0.73500
O34         O  0.65714222  0.86603734  0.67789563    -0.79100
O35         O  0.63857691  0.88930027  0.54537899    -0.77300
O36         O  0.63941066  0.84289233  0.59894808    -1.13500
O37         O  0.65082950  0.84172973  0.50126357    -0.72700
C38         C  0.63384671  0.82623721  0.48970921     0.98100
C39         C  0.63469563  0.80318232  0.68789235     0.94400
Al40       Al  0.62760300  0.86082756  0.65032078     1.55600
O41         O  0.66104215  0.79572643  0.56113457    -0.77300
C42         C  0.62952070  0.90578467  0.57610496     0.98600
C43         C  0.58745188  0.83342960  0.61655648     0.93500
O44         O  0.59973341  0.81191517  0.60673304    -0.82600
O45         O  0.60114363  0.69562719  0.10236040    -0.82100
C46         C  0.67469727  0.62831195  0.16083578     0.97300
O47         O  0.65750233  0.64065429  0.17991066    -0.71200
O48         O  0.62524898  0.67993327  0.19128540    -0.74800
Al49       Al  0.62843856  0.64653655  0.14989035     1.49000
C50         C  0.63357296  0.70462764  0.18801787     0.92500
O51         O  0.66505740  0.71043556  0.06627233    -0.81000
O52         O  0.65515683  0.66527904  0.00244560    -0.74600
Al53       Al  0.63378106  0.69962477  0.08585714     1.90100
O54         O  0.68516474  0.67154404  0.07821353    -0.73600
O55         O  0.64034771  0.61798234  0.04531453    -0.73500
O56         O  0.67486907  0.62317565  0.11551958    -0.79100
O57         O  0.62856176  0.60894252  0.11956512    -0.77300
O58         O  0.64129492  0.66411405  0.09961911    -1.13500
O59         O  0.59843830  0.65119679  0.12474319    -0.72700
C60         C  0.58892214  0.67408251  0.11203888     0.98100
C61         C  0.68442599  0.69750041  0.06893836     0.94400
Al62       Al  0.66199300  0.64583275  0.06324478     1.55600
O63         O  0.64163388  0.71293371  0.14809943    -0.77300
C64         C  0.63110688  0.60136157  0.07539406     0.98600
C65         C  0.63897652  0.68194980  0.98988656     0.93500
O66         O  0.62498789  0.69105040  0.02144183    -0.82600
O67         O  0.38060123  0.69023894  0.01137231    -0.82100
C68         C  0.32613192  0.63003674  0.14516295     0.97300
O69         O  0.32506668  0.62712356  0.09940577    -0.71200
O70         O  0.31808557  0.67762980  0.06520191    -0.74800
Al71       Al  0.33955866  0.64904190  0.04870312     1.49000
C72         C  0.32124607  0.70293332  0.05339240     0.92500
O73         O  0.36196828  0.71100537  0.13777123    -0.81000
O74         O  0.40453001  0.64743545  0.10799546    -0.74600
Al75       Al  0.37080931  0.69901115  0.07508319     1.90100
O76         O  0.37800479  0.67580582  0.17759526    -0.73600
O77         O  0.37246527  0.60770464  0.10016770    -0.73500
O78         O  0.34456558  0.63892809  0.16444920    -0.79100
O79         O  0.35868400  0.61901544  0.02855913    -0.77300
O80         O  0.36149084  0.66389802  0.08584502    -1.13500
O81         O  0.34893498  0.66820516  0.98953883    -0.72700
C82         C  0.36688599  0.68221056  0.97852742     0.98100
C83         C  0.37000165  0.70087527  0.17674894     0.94400
Al84       Al  0.37389903  0.64388165  0.13380413     1.55600
O85         O  0.34143585  0.71310823  0.05164803    -0.77300
C86         C  0.36867229  0.60149291  0.05593439     0.98600
C87         C  0.41426258  0.67088228  0.10032210     0.93500
O88         O  0.40230608  0.69311832  0.09494417    -0.82600
O89         O  0.09906824  0.81581481  0.89285514    -0.82100
C90         C  0.17892786  0.87322247  0.84466937     0.97300
O91         O  0.16071425  0.86511674  0.82375129    -0.71200
O92         O  0.12524332  0.83219595  0.80583389    -0.74800
Al93       Al  0.13092957  0.86244748  0.85217267     1.49000
C94         C  0.13083032  0.80625443  0.80577452     0.92500
O95         O  0.16010939  0.78879098  0.92587848    -0.81000
O96         O  0.15387454  0.83305045  0.99650913    -0.74600
Al97       Al  0.13051509  0.80578337  0.90825080     1.90100
O98         O  0.18394160  0.82461674  0.92104309    -0.73600
O99         O  0.14503670  0.88370547  0.96051996    -0.73500
O100        O  0.17917706  0.87589936  0.89053900    -0.79100
O101        O  0.13412081  0.89798956  0.88828362    -0.77300
O102        O  0.14150140  0.84045198  0.89987726    -1.13500
O103        O  0.10020790  0.86124514  0.87541118    -0.72700
C104        C  0.08895425  0.83930108  0.88588746     0.98100
C105        C  0.18055992  0.79847996  0.92399080     0.94400
Al106      Al  0.16354867  0.85334008  0.93900690     1.55600
O107        O  0.13730628  0.79450184  0.84440835    -0.77300
C108        C  0.13737271  0.90297119  0.93328820     0.98600
C109        C  0.13588868  0.81903611  0.00653055     0.93500
O110        O  0.12207849  0.81239834  0.97326711    -0.82600
O111        O  0.88197108  0.81620481  0.98346205    -0.82100
C112        C  0.82395959  0.87231417  0.84811408     0.97300
O113        O  0.82368476  0.87526842  0.89388884    -0.71200
O114        O  0.81901437  0.82405132  0.92892436    -0.74800
Al115      Al  0.83927977  0.85379618  0.94402547     1.49000
C116        C  0.82341608  0.79865061  0.93951234     0.92500
O117        O  0.86561840  0.79093526  0.85894602    -0.81000
O118        O  0.90298400  0.85808054  0.87781587    -0.74600
Al119      Al  0.87310127  0.80552614  0.91997697     1.90100
O120        O  0.87651217  0.82640593  0.81336741    -0.73600
O121        O  0.86983195  0.89575510  0.88895337    -0.73500
O122        O  0.84183906  0.86238495  0.82769262    -0.79100
O123        O  0.85786040  0.88444898  0.96223779    -0.77300
O124        O  0.86151553  0.83944750  0.90640921    -1.13500
O125        O  0.84876513  0.83513582  0.00361602    -0.72700
C126        C  0.86690650  0.82160975  0.01536759     0.98100
C127        C  0.87137429  0.80046316  0.81811234     0.94400
Al128      Al  0.87190722  0.85913018  0.85590048     1.55600
O129        O  0.84417263  0.78983394  0.94231789    -0.77300
C130        C  0.86716379  0.90191568  0.93379255     0.98600
C131        C  0.91447324  0.83656641  0.89036128     0.93500
O132        O  0.90423169  0.81383455  0.90072940    -0.82600
O133        O  0.90208245  0.68654136  0.42173929    -0.82100
C134        C  0.81920094  0.63250715  0.36564618     0.97300
O135        O  0.83886856  0.62828879  0.34654869    -0.71200
O136        O  0.86032193  0.67308483  0.31348853    -0.74800
Al137      Al  0.86886425  0.64413133  0.35906471     1.49000
C138        C  0.86599176  0.69878070  0.31496508     0.92500
O139        O  0.84026674  0.71585028  0.42100043    -0.81000
O140        O  0.86062113  0.65566976  0.50993322    -0.74600
Al141      Al  0.87081963  0.69930300  0.42053257     1.90100
O142        O  0.82469926  0.68372339  0.46825818    -0.73600
O143        O  0.85214684  0.61240135  0.45273854    -0.73500
O144        O  0.81755152  0.64283602  0.40782582    -0.79100
O145        O  0.87886914  0.61204133  0.39627964    -0.77300
O146        O  0.86011577  0.66426458  0.41167106    -1.13500
O147        O  0.90054144  0.65624906  0.36092078    -0.72700
C148        C  0.91209306  0.67072937  0.39101367     0.98100
C149        C  0.82442840  0.70800136  0.44976320     0.94400
Al150      Al  0.84049679  0.64972318  0.45543725     1.55600
O151        O  0.87292584  0.70937594  0.35424233    -0.77300
C152        C  0.86907012  0.60052094  0.43212413     0.98600
C153        C  0.86892174  0.67948042  0.52097158     0.93500
O154        O  0.87151679  0.69817863  0.48906201    -0.82600
O155        O  0.11922822  0.68816095  0.47187533    -0.82100
C156        C  0.17744032  0.63062365  0.34037427     0.97300
O157        O  0.17806476  0.62745784  0.38616942    -0.71200
O158        O  0.18256280  0.67892972  0.41879134    -0.74800
Al159      Al  0.16232091  0.64971039  0.43606632     1.49000
C160        C  0.17830637  0.70447365  0.42819182     0.92500
O161        O  0.13696816  0.70967509  0.34693717    -0.81000
O162        O  0.09829058  0.64348608  0.37272911    -0.74600
Al163      Al  0.12868938  0.69725884  0.40861466     1.90100
O164        O  0.12406311  0.67363639  0.30490464    -0.73600
O165        O  0.13195443  0.60622906  0.38410907    -0.73500
O166        O  0.15896715  0.63892066  0.32043452    -0.79100
O167        O  0.14399676  0.61939708  0.45637231    -0.77300
O168        O  0.13998086  0.66296320  0.39791632    -1.13500
O169        O  0.15228713  0.66990842  0.49495133    -0.72700
C170        C  0.13380453  0.68353066  0.50487280     0.98100
C171        C  0.13049760  0.69925304  0.30716423     0.94400
Al172      Al  0.12921939  0.64205177  0.34927461     1.55600
O173        O  0.15758735  0.71344748  0.43086237    -0.77300
C174        C  0.13489636  0.60111736  0.42915395     0.98600
C175        C  0.08703922  0.66569770  0.38282839     0.93500
O176        O  0.09750970  0.68882688  0.38920376    -0.82600
O177        O  0.60490321  0.31992966  0.92659159    -0.82100
C178        C  0.68664539  0.37384309  0.85817013     0.97300
O179        O  0.66637600  0.37670668  0.84186362    -0.71200
O180        O  0.64181698  0.33403048  0.81212021    -0.74800
Al181      Al  0.63680654  0.36271980  0.86115765     1.49000
C182        C  0.63652455  0.30821880  0.81368531     0.92500
O183        O  0.66558192  0.28833792  0.91291261    -0.81000
O184        O  0.65290913  0.34519467  0.01017254    -0.74600
Al185      Al  0.63576504  0.30615168  0.91918851     1.90100
O186        O  0.68572854  0.32007222  0.95311647    -0.73600
O187        O  0.65699558  0.39083757  0.95738600    -0.73500
O188        O  0.68976988  0.36424517  0.90034062    -0.79100
O189        O  0.63023860  0.39509334  0.90175029    -0.77300
O190        O  0.64725611  0.34113229  0.91066073    -1.13500
O191        O  0.60509669  0.35271293  0.87020069    -0.72700
C192        C  0.59418148  0.33747320  0.90008301     0.98100
C193        C  0.68415823  0.29626376  0.93300278     0.94400
Al194      Al  0.66923272  0.35406268  0.95132897     1.55600
O195        O  0.63086364  0.29735925  0.85343644    -0.77300
C196        C  0.64073008  0.40475913  0.93848732     0.98600
C197        C  0.64343788  0.32199516  0.02028323     0.93500
O198        O  0.63773081  0.30526685  0.98713123    -0.82600
O199        O  0.38595224  0.31559538  0.98336231    -0.82100
C200        C  0.32875525  0.37187293  0.84773546     0.97300
O201        O  0.32820474  0.37478062  0.89339010    -0.71200
O202        O  0.32322798  0.32356596  0.92663321    -0.74800
Al203      Al  0.34329658  0.35320073  0.94339921     1.49000
C204        C  0.32759625  0.29829306  0.93767088     0.92500
O205        O  0.36957081  0.29075702  0.85821581    -0.81000
O206        O  0.40747487  0.35779598  0.87992997    -0.74600
Al207      Al  0.37719552  0.30500696  0.91965969     1.90100
O208        O  0.38139835  0.32624021  0.81382378    -0.73600
O209        O  0.37370748  0.39532356  0.88930092    -0.73500
O210        O  0.34667982  0.36188343  0.82752592    -0.79100
O211        O  0.36146861  0.38402262  0.96246932    -0.77300
O212        O  0.36580472  0.33904357  0.90642638    -1.13500
O213        O  0.35254636  0.33442760  0.00304687    -0.72700
C214        C  0.37093741  0.32147844  0.01517474     0.98100
C215        C  0.37515162  0.30059890  0.81745172     0.94400
Al216      Al  0.37651549  0.35880509  0.85652147     1.55600
O217        O  0.34825326  0.28943260  0.94184676    -0.77300
C218        C  0.36987173  0.40192075  0.93354820     0.98600
C219        C  0.41880576  0.33600183  0.89187177     0.93500
O220        O  0.40841386  0.31312657  0.90060378    -0.82600
O221        O  0.40981576  0.18804015  0.39997689    -0.82100
C222        C  0.33116787  0.12913677  0.34568703     0.97300
O223        O  0.34918183  0.13874465  0.32596065    -0.71200
O224        O  0.38334353  0.17407922  0.31197078    -0.74800
Al225      Al  0.37898441  0.14176706  0.35462125     1.49000
C226        C  0.37662404  0.19960915  0.31544703     0.92500
O227        O  0.34826330  0.21114195  0.43922352    -0.81000
O228        O  0.35436544  0.16587295  0.50131323    -0.74600
Al229      Al  0.37817417  0.19603185  0.41805591     1.90100
O230        O  0.32504395  0.17546794  0.42528819    -0.73600
O231        O  0.36495860  0.11693629  0.46057683    -0.73500
O232        O  0.33101154  0.12482489  0.39108696    -0.79100
O233        O  0.37684172  0.10493307  0.38741814    -0.77300
O234        O  0.36791548  0.16155211  0.40482569    -1.13500
O235        O  0.40998432  0.14347312  0.37695290    -0.72700
C236        C  0.42073845  0.16557960  0.38897912     0.98100
C237        C  0.32799375  0.20089291  0.43686439     0.94400
Al238      Al  0.34583265  0.14682565  0.44159847     1.55600
O239        O  0.37067808  0.20954111  0.35607776    -0.77300
C240        C  0.37310060  0.09865048  0.43182669     0.98600
C241        C  0.37191268  0.17998835  0.51401598     0.93500
O242        O  0.38683028  0.18666803  0.48262803    -0.82600
O243        O  0.62828017  0.18804270  0.48498168    -0.82100
C244        C  0.68565219  0.12834937  0.35371277     0.97300
O245        O  0.68467880  0.12332767  0.39899912    -0.71200
O246        O  0.69100872  0.17311872  0.43582149    -0.74800
Al247      Al  0.66902678  0.14569512  0.44899014     1.49000
C248        C  0.68862286  0.19909783  0.44444293     0.92500
O249        O  0.64788439  0.21008491  0.36026996    -0.81000
O250        O  0.60724904  0.14518924  0.37945481    -0.74600
Al251      Al  0.63865415  0.19682766  0.42161091     1.90100
O252        O  0.63465080  0.17527904  0.31612277    -0.73600
O253        O  0.63910517  0.10565401  0.39016239    -0.73500
O254        O  0.66831556  0.13904056  0.33266484    -0.79100
O255        O  0.64832841  0.11657041  0.46540112    -0.77300
O256        O  0.64848271  0.16185297  0.40980064    -1.13500
O257        O  0.65943910  0.16539812  0.50786626    -0.72700
C258        C  0.64220102  0.18104442  0.51809959     0.98100
C259        C  0.64162500  0.20056555  0.31964663     0.94400
Al260      Al  0.63818450  0.14273330  0.35862200     1.55600
O261        O  0.66856299  0.21042488  0.44535731    -0.77300
C262        C  0.63982818  0.09944007  0.43514474     0.98600
C263        C  0.59620832  0.16748575  0.38975681     0.93500
O264        O  0.60697402  0.19006521  0.40030775    -0.82600
O265        O  0.91004331  0.32024421  0.57200519    -0.82100
C266        C  0.82642554  0.37177880  0.63694411     0.97300
O267        O  0.84654099  0.37670476  0.65268380    -0.71200
O268        O  0.87014631  0.33274737  0.68509037    -0.74800
Al269      Al  0.87652650  0.36160287  0.63714927     1.49000
C270        C  0.87736951  0.30745563  0.68378743     0.92500
O271        O  0.85011385  0.28727009  0.58246805    -0.81000
O272        O  0.86377326  0.34646931  0.48800775    -0.74600
Al273      Al  0.87959078  0.30569084  0.57794554     1.90100
O274        O  0.83099680  0.31805685  0.53772001    -0.73600
O275        O  0.85575040  0.39046468  0.54467624    -0.73500
O276        O  0.82380646  0.36006494  0.59610904    -0.79100
O277        O  0.88424201  0.39356894  0.59658528    -0.77300
O278        O  0.86724999  0.34016170  0.58680393    -1.13500
O279        O  0.90842678  0.35071854  0.63243963    -0.72700
C280        C  0.92002814  0.33632762  0.60205240     0.98100
C281        C  0.83282511  0.29402063  0.55664501     0.94400
Al282      Al  0.84554458  0.35284006  0.54561915     1.55600
O283        O  0.88420722  0.29698612  0.64423433    -0.77300
C284        C  0.87257495  0.40392018  0.56188310     0.98600
C285        C  0.87283831  0.32292363  0.47689461     0.93500
O286        O  0.87806251  0.30542073  0.50940785    -0.82600
O287        O  0.12867704  0.31804010  0.51668183    -0.82100
C288        C  0.18255465  0.37824885  0.65132652     0.97300
O289        O  0.18295277  0.38241531  0.60582340    -0.71200
O290        O  0.19081113  0.33233278  0.57014616    -0.74800
Al291      Al  0.16872456  0.35992796  0.55500488     1.49000
C292        C  0.18834729  0.30659114  0.56021889     0.92500
O293        O  0.14665760  0.29611016  0.64272378    -0.81000
O294        O  0.10509456  0.36040804  0.61873763    -0.74600
Al295      Al  0.13822201  0.30914071  0.58051975     1.90100
O296        O  0.13203824  0.33116991  0.68532019    -0.73600
O297        O  0.13625341  0.40024203  0.60959088    -0.73500
O298        O  0.16478236  0.36804324  0.67100334    -0.79100
O299        O  0.14849920  0.38890770  0.53646717    -0.77300
O300        O  0.14739821  0.34413914  0.59265523    -1.13500
O301        O  0.16007806  0.34039872  0.49536625    -0.72700
C302        C  0.14262468  0.32563886  0.48402117     0.98100
C303        C  0.13968429  0.30597831  0.68278336     0.94400
Al304      Al  0.13550014  0.36353287  0.64228569     1.55600
O305        O  0.16829096  0.29572746  0.55832003    -0.77300
C306        C  0.13889905  0.40632745  0.56486984     0.98600
C307        C  0.09486650  0.33778382  0.60804131     0.93500
O308        O  0.10638805  0.31539442  0.59960627    -0.82600
O309        O  0.10466034  0.19219946  0.09954549    -0.82100
C310        C  0.18316209  0.13138863  0.15047753     0.97300
O311        O  0.16535324  0.14151279  0.17065387    -0.71200
O312        O  0.13149551  0.17747164  0.18654185    -0.74800
Al313      Al  0.13561692  0.14518576  0.14284617     1.49000
C314        C  0.13796684  0.20302755  0.18353721     0.92500
O315        O  0.16582772  0.21442035  0.06020760    -0.81000
O316        O  0.15907249  0.16983113  0.99549344    -0.74600
Al317      Al  0.13610562  0.19974950  0.08113693     1.90100
O318        O  0.18896308  0.17798779  0.07117877    -0.73600
O319        O  0.14867773  0.12043890  0.03567713    -0.73500
O320        O  0.18325942  0.12740453  0.10484967    -0.79100
O321        O  0.13736178  0.10844866  0.10899889    -0.77300
O322        O  0.14641069  0.16500543  0.09294586    -1.13500
O323        O  0.10484029  0.14742771  0.12098086    -0.72700
C324        C  0.09400950  0.16960161  0.10935553     0.98100
C325        C  0.18606691  0.20395345  0.06377036     0.94400
Al326      Al  0.16807959  0.14998046  0.05481709     1.55600
O327        O  0.14394523  0.21300638  0.14313827    -0.77300
C328        C  0.14020493  0.10238561  0.06409857     0.98600
C329        C  0.14129066  0.18435070  0.98445772     0.93500
O330        O  0.12694628  0.19081729  0.01714342    -0.82600
O331        O  0.88736305  0.18692593  0.01217698    -0.82100
C332        C  0.83052447  0.13080504  0.14766287     0.97300
O333        O  0.82936115  0.12758094  0.10188576    -0.71200
O334        O  0.82407369  0.17814187  0.06553204    -0.74800
Al335      Al  0.84479052  0.14863169  0.05037053     1.49000
C336        C  0.82783795  0.20327981  0.05325531     0.92500
O337        O  0.86830306  0.21126793  0.13616872    -0.81000
O338        O  0.90862036  0.14512405  0.11369041    -0.74600
Al339      Al  0.87736264  0.19746590  0.07501934     1.90100
O340        O  0.88211546  0.17628975  0.17987022    -0.73600
O341        O  0.87616803  0.10667815  0.10489948    -0.73500
O342        O  0.84875244  0.14019267  0.16660841    -0.79100
O343        O  0.86341991  0.11776588  0.03213103    -0.77300
O344        O  0.86680549  0.16312113  0.08760185    -1.13500
O345        O  0.85478624  0.16731865  0.99010839    -0.72700
C346        C  0.87305358  0.18089857  0.97922953     0.98100
C347        C  0.87457524  0.20155900  0.17672029     0.94400
Al348      Al  0.87804295  0.14351745  0.13732322     1.55600
O349        O  0.84835856  0.21251683  0.05042941    -0.77300
C350        C  0.87250996  0.10008414  0.06066257     0.98600
C351        C  0.91950153  0.16748142  0.10472738     0.93500
O352        O  0.90860647  0.19026809  0.09640034    -0.82600
C353        C  0.03177537  0.18477714  0.07453568    -0.27900
C354        C  0.01971995  0.16846493  0.10873899     0.01700
C355        C  0.03230559  0.15219356  0.14266686     0.29800
C356        C  0.05653060  0.15240202  0.14192178    -0.19700
C357        C  0.06852889  0.16919951  0.10835761    -0.29100
C358        C  0.05598290  0.18536732  0.07435975     0.43900
C359        C  0.99406520  0.16832025  0.10816541     0.05000
O360        O  0.02111109  0.13631757  0.17707225    -0.57600
H361        H  0.06596408  0.13989102  0.16840612     0.18000
O362        O  0.06719593  0.20134956  0.04016352    -0.64300
H363        H  0.02239052  0.19684990  0.04741988     0.16400
C364        C  0.98126947  0.19377514  0.10836460     0.28700
C365        C  0.95704801  0.19312994  0.10685152    -0.25200
C366        C  0.94515573  0.16730860  0.10535696    -0.24500
C367        C  0.95804384  0.14179673  0.10561655     0.40100
C368        C  0.98226441  0.14249933  0.10652597    -0.26900
O369        O  0.99227705  0.21933666  0.11214923    -0.58800
H370        H  0.94757100  0.21298798  0.10754128     0.15800
O371        O  0.94725798  0.11604587  0.10370452    -0.60300
H372        H  0.99188196  0.12274175  0.10554495     0.14200
H373        H  0.06960780  0.18848722  0.01204611     0.46100
H374        H  0.99067809  0.22828010  0.07971455     0.41400
H375        H  0.94615955  0.10973247  0.13802999     0.44900
H376        H  0.01862723  0.14927591  0.20505707     0.36400
C377        C  0.15642636  0.29890172  0.35629112    -0.27900
C378        C  0.13755261  0.28087834  0.34791401     0.01700
C379        C  0.11897704  0.28106541  0.38116105     0.29800
C380        C  0.12012778  0.29749086  0.42351953    -0.19700
C381        C  0.13972467  0.31407584  0.43389509    -0.29100
C382        C  0.15765613  0.31536861  0.39883048     0.43900
C383        C  0.13779637  0.26098123  0.30583004     0.05000
O384        O  0.09988097  0.26452242  0.37334052    -0.57600
H385        H  0.10597443  0.29619823  0.44938690     0.18000
O386        O  0.17692337  0.33164337  0.40653100    -0.64300
H387        H  0.17081554  0.29920776  0.33090569     0.16400
C388        C  0.14047040  0.27081732  0.25795770     0.28700
C389        C  0.14048931  0.25166241  0.21898005    -0.25200
C390        C  0.13804032  0.22232713  0.22656464    -0.24500
C391        C  0.13554327  0.21249252  0.27467915     0.40100
C392        C  0.13549039  0.23174174  0.31372724    -0.26900
O393        O  0.14206930  0.29924536  0.24873245    -0.58800
H394        H  0.14220742  0.26000470  0.18247772     0.15800
O395        O  0.13376365  0.18414253  0.28420040    -0.60300
H396        H  0.13379595  0.22376892  0.35048579     0.14200
H397        H  0.18853759  0.31871086  0.42130821     0.46100
H398        H  0.15865113  0.30255361  0.24110413     0.41400
H399        H  0.11686650  0.18047981  0.28635114     0.44900
H400        H  0.08928047  0.27628688  0.35335290     0.36400
C401        C  0.13919278  0.27893719  0.81372722    -0.27900
C402        C  0.13939582  0.24949044  0.80638172     0.01700
C403        C  0.13973804  0.23889546  0.75855481     0.29800
C404        C  0.13993547  0.25757838  0.71902111    -0.19700
C405        C  0.13975707  0.28710303  0.72609442    -0.29100
C406        C  0.13935928  0.29769580  0.77413076     0.43900
C407        C  0.13882702  0.23012679  0.84895458     0.05000
O408        O  0.13874899  0.21031228  0.75012770    -0.57600
H409        H  0.13984680  0.24881685  0.68254628     0.18000
O410        O  0.13991249  0.32624931  0.78289606    -0.64300
H411        H  0.13904757  0.28740850  0.85040846     0.16400
C412        C  0.15717773  0.21114314  0.85866251     0.28700
C413        C  0.15697090  0.19469944  0.90116346    -0.25200
C414        C  0.13868070  0.19696617  0.93497195    -0.24500
C415        C  0.11976207  0.21507149  0.92371751     0.40100
C416        C  0.12003210  0.23141466  0.88124248    -0.26900
O417        O  0.17589170  0.20939155  0.82791653    -0.58800
H418        H  0.17177933  0.18121565  0.90877963     0.15800
O419        O  0.10106221  0.21751710  0.95439371    -0.60300
H420        H  0.10563995  0.24562895  0.87393414     0.14200
H421        H  0.12350256  0.33194531  0.78775076     0.46100
H422        H  0.18699688  0.22368158  0.84012925     0.41400
H423        H  0.10383118  0.23493181  0.97362067     0.44900
H424        H  0.15443348  0.20484987  0.73852213     0.36400
C425        C  0.89399971  0.28089272  0.36914902    -0.27900
C426        C  0.87381706  0.27957303  0.34075112     0.01700
C427        C  0.85450452  0.29641901  0.35401119     0.29800
C428        C  0.85534018  0.31329643  0.39617620    -0.19700
C429        C  0.87511962  0.31333979  0.42591115    -0.29100
C430        C  0.89471038  0.29743832  0.41142641     0.43900
C431        C  0.87296566  0.25943588  0.29902411     0.05000
O432        O  0.83404746  0.29434786  0.32881186    -0.57600
H433        H  0.83979715  0.32442453  0.40784151     0.18000
O434        O  0.91413324  0.29646591  0.44016152    -0.64300
H435        H  0.90904435  0.26823783  0.35937072     0.16400
C436        C  0.86754733  0.26866703  0.25175220     0.28700
C437        C  0.86772984  0.24946253  0.21291541    -0.25200
C438        C  0.87362722  0.22075540  0.21981371    -0.24500
C439        C  0.87894366  0.21149289  0.26729270     0.40100
C440        C  0.87853148  0.23074199  0.30630038    -0.26900
O441        O  0.86261934  0.29658182  0.24276686    -0.58800
H442        H  0.86365143  0.25736747  0.17694212     0.15800
O443        O  0.88430204  0.18369829  0.27625903    -0.60300
H444        H  0.88265697  0.22322900  0.34250885     0.14200
H445        H  0.92378497  0.31251846  0.42924555     0.46100
H446        H  0.87790110  0.30572405  0.23833769     0.41400
H447        H  0.90147760  0.18258188  0.27466710     0.44900
H448        H  0.83173187  0.31303213  0.31318145     0.36400
C449        C  0.89586398  0.22837584  0.87887834    -0.27900
C450        C  0.87641696  0.23058226  0.84859504     0.01700
C451        C  0.85738888  0.21273257  0.85699838     0.29800
C452        C  0.85743642  0.19425311  0.89705168    -0.19700
C453        C  0.87609363  0.19379505  0.93005406    -0.29100
C454        C  0.89588566  0.21024519  0.91913022     0.43900
C455        C  0.87663398  0.25099761  0.80752684     0.05000
O456        O  0.83862175  0.21332023  0.82639328    -0.57600
H457        H  0.84212240  0.18173658  0.90404300     0.18000
O458        O  0.91499342  0.20993851  0.94881902    -0.64300
H459        H  0.91089486  0.24143987  0.87207013     0.16400
C460        C  0.86225888  0.27526394  0.80705167     0.28700
C461        C  0.86299767  0.29411958  0.76745915    -0.25200
C462        C  0.87795289  0.28906484  0.72784323    -0.24500
C463        C  0.89270743  0.26498342  0.72931727     0.40100
C464        C  0.89206055  0.24647815  0.76894884    -0.26900
O465        O  0.84742543  0.28068899  0.84505084    -0.58800
H466        H  0.85152091  0.31234983  0.76729129     0.15800
O467        O  0.90826210  0.25953511  0.69256477    -0.60300
H468        H  0.90351717  0.22821565  0.76925707     0.14200
H469        H  0.92445752  0.19366363  0.93750657     0.46100
H470        H  0.85634264  0.29270540  0.86783882     0.41400
H471        H  0.90087842  0.24484673  0.67212773     0.44900
H472        H  0.82719889  0.22611041  0.84228407     0.36400
C473        C  0.98198704  0.34577392  0.64528662    -0.27900
C474        C  0.99453049  0.33950410  0.60281813     0.01700
C475        C  0.98247105  0.33282399  0.55981826     0.29800
C476        C  0.95822652  0.33182787  0.55998277    -0.19700
C477        C  0.94562126  0.33797357  0.60252126    -0.29100
C478        C  0.95775105  0.34510625  0.64541681     0.43900
C479        C  0.02018557  0.33922600  0.60406063     0.05000
O480        O  0.99424594  0.32733839  0.51738654    -0.57600
H481        H  0.94925471  0.32650516  0.52659449     0.18000
O482        O  0.94617093  0.35083250  0.68801097    -0.64300
H483        H  0.99103823  0.35062157  0.67878543     0.16400
C484        C  0.03263097  0.36309318  0.61945655     0.28700
C485        C  0.05687085  0.36230159  0.62018868    -0.25200
C486        C  0.06916051  0.33772314  0.60639212    -0.24500
C487        C  0.05657006  0.31371258  0.59145585     0.40100
C488        C  0.03231998  0.31468260  0.59020079    -0.26900
O489        O  0.02126069  0.38763690  0.63202666    -0.58800
H490        H  0.06602349  0.38110050  0.63171434     0.15800
O491        O  0.06768298  0.28933687  0.57715253    -0.60300
H492        H  0.02290816  0.29606091  0.57872950     0.14200
H493        H  0.94401113  0.33218715  0.70379926     0.46100
H494        H  0.02206787  0.38860686  0.66804119     0.41400
H495        H  0.06878457  0.27765181  0.60693300     0.44900
H496        H  0.99688385  0.34610384  0.50249518     0.36400
C497        C  0.77188773  0.10540124  0.19461764    -0.27900
C498        C  0.77055700  0.11921696  0.23998540     0.01700
C499        C  0.78975637  0.13498641  0.25594824     0.29800
C500        C  0.80939925  0.13748323  0.22626219    -0.19700
C501        C  0.81033692  0.12482298  0.17982034    -0.29100
C502        C  0.79149002  0.10813866  0.16461689     0.43900
C503        C  0.74853277  0.11897009  0.26859365     0.05000
O504        O  0.78915601  0.14907540  0.29965328    -0.57600
H505        H  0.82359555  0.15044921  0.23899710     0.18000
O506        O  0.79180752  0.09478138  0.12027150    -0.64300
H507        H  0.75746089  0.09279865  0.18200108     0.16400
C508        C  0.72755934  0.12771176  0.24704284     0.28700
C509        C  0.70725864  0.12954285  0.27490099    -0.25200
C510        C  0.70717796  0.12284333  0.32480923    -0.24500
C511        C  0.72812744  0.11346880  0.34623500     0.40100
C512        C  0.74851766  0.11161633  0.31818508    -0.26900
O513        O  0.72705629  0.13646364  0.19947832    -0.58800
H514        H  0.69161765  0.13716429  0.25734847     0.15800
O515        O  0.72920062  0.10718460  0.39486816    -0.60300
H516        H  0.76448009  0.10480467  0.33543673     0.14200
H517        H  0.80009101  0.07662206  0.12595047     0.46100
H518        H  0.71951755  0.12090381  0.18126537     0.41400
H519        H  0.72558981  0.08674387  0.39698448     0.44900
H520        H  0.78206644  0.16775563  0.29239477     0.36400
C521        C  0.72996729  0.25185323  0.50165400    -0.27900
C522        C  0.75129572  0.23832873  0.49250081     0.01700
C523        C  0.75190426  0.21336652  0.46484944     0.29800
C524        C  0.73137447  0.20200518  0.44713647    -0.19700
C525        C  0.70981210  0.21492432  0.45701617    -0.29100
C526        C  0.70922233  0.24025740  0.48423019     0.43900
C527        C  0.77310388  0.25058956  0.51040635     0.05000
O528        O  0.77243178  0.19910411  0.45732921    -0.57600
H529        H  0.73238380  0.18236468  0.42678910     0.18000
O530        O  0.68857680  0.25337720  0.49521999    -0.64300
H531        H  0.72942182  0.27128427  0.52262788     0.16400
C532        C  0.79035015  0.25858091  0.47705572     0.28700
C533        C  0.81108340  0.26974640  0.49388114    -0.25200
C534        C  0.81471746  0.27404660  0.54375766    -0.24500
C535        C  0.79763940  0.26604108  0.57739211     0.40100
C536        C  0.77693970  0.25404915  0.56058798    -0.26900
O537        O  0.78667040  0.25670871  0.42782431    -0.58800
H538        H  0.82380648  0.27693343  0.46762090     0.15800
O539        O  0.80049202  0.27124593  0.62614337    -0.60300
H540        H  0.76369250  0.24801886  0.58650074     0.14200
H541        H  0.68356523  0.24501335  0.52648097     0.46100
H542        H  0.77895803  0.27473949  0.41879735     0.41400
H543        H  0.79439611  0.29065801  0.63139860     0.44900
H544        H  0.77584763  0.20107763  0.42212641     0.36400
C545        C  0.53384363  0.14141336  0.38637048    -0.27900
C546        C  0.52131027  0.16687071  0.38362930     0.01700
C547        C  0.53357556  0.19258055  0.38239291     0.29800
C548        C  0.55786273  0.19256997  0.38515428    -0.19700
C549        C  0.57043681  0.16708079  0.38811258    -0.29100
C550        C  0.55810527  0.14129954  0.38806326     0.43900
C551        C  0.49549609  0.16639449  0.38436056     0.05000
O552        O  0.52197862  0.21787052  0.37824731    -0.57600
H553        H  0.56687760  0.21259472  0.38425819     0.18000
O554        O  0.56948060  0.11580577  0.39146816    -0.64300
H555        H  0.52477469  0.12145152  0.38818202     0.16400
C556        C  0.48280484  0.14914428  0.35214289     0.28700
C557        C  0.45849466  0.14873420  0.35457260    -0.25200
C558        C  0.44643307  0.16549724  0.38863755    -0.24500
C559        C  0.45913901  0.18262602  0.42091588     0.40100
C560        C  0.48341115  0.18278715  0.41886597    -0.26900
O561        O  0.49395353  0.13363771  0.31676784    -0.58800
H562        H  0.44902900  0.13572450  0.32896810     0.15800
O563        O  0.44805255  0.19843571  0.45593302    -0.60300
H564        H  0.49286393  0.19560468  0.44476557     0.14200
H565        H  0.57101788  0.10892404  0.35748347     0.46100
H566        H  0.49266748  0.11363195  0.32717823     0.41400
H567        H  0.44698209  0.21778066  0.44228911     0.44900
H568        H  0.52042564  0.22108515  0.34275054     0.36400
C569        C  0.24320518  0.10645785  0.19178241    -0.27900
C570        C  0.24506699  0.11994331  0.23725648     0.01700
C571        C  0.22607057  0.13578596  0.25485421     0.29800
C572        C  0.20588471  0.13840282  0.22680891    -0.19700
C573        C  0.20410776  0.12552608  0.18068467    -0.29100
C574        C  0.22299277  0.10915281  0.16354350     0.43900
C575        C  0.26750655  0.11949356  0.26406516     0.05000
O576        O  0.22772276  0.15053016  0.29778803    -0.57600
H577        H  0.19187123  0.15153627  0.24064231     0.18000
O578        O  0.22189028  0.09556322  0.11946979    -0.64300
H579        H  0.25767372  0.09416815  0.17774316     0.16400
C580        C  0.26914655  0.10969943  0.31235356     0.28700
C581        C  0.29011151  0.11206510  0.33797796    -0.25200
C582        C  0.30988636  0.12395395  0.31610180    -0.24500
C583        C  0.30832733  0.13279123  0.26702802     0.40100
C584        C  0.28734875  0.13047909  0.24164494    -0.26900
O585        O  0.25026261  0.09818723  0.33513261    -0.58800
H586        H  0.29072147  0.10504075  0.37545134     0.15800
O587        O  0.32679038  0.14516079  0.24407880    -0.60300
H588        H  0.28636463  0.13824582  0.20462663     0.14200
H589        H  0.22976439  0.10831687  0.09616759     0.46100
H590        H  0.25023829  0.07803175  0.32509665     0.41400
H591        H  0.33479100  0.12950880  0.22659391     0.44900
H592        H  0.21760628  0.14039093  0.32109616     0.36400
C593        C  0.26972573  0.21866883  0.49137682    -0.27900
C594        C  0.26880652  0.24805066  0.48642967     0.01700
C595        C  0.28764321  0.26229778  0.46491252     0.29800
C596        C  0.30700557  0.24690588  0.44848482    -0.19700
C597        C  0.30753192  0.21734031  0.45241409    -0.29100
C598        C  0.28862019  0.20328452  0.47416428     0.43900
C599        C  0.24817773  0.26319025  0.50519608     0.05000
O600        O  0.28728985  0.29113406  0.45976197    -0.57600
H601        H  0.32147325  0.25800233  0.43231947     0.18000
O602        O  0.28892831  0.17457272  0.48140165    -0.64300
H603        H  0.25579719  0.20751440  0.50941182     0.16400
C604        C  0.22569981  0.25438278  0.49224627     0.28700
C605        C  0.20632783  0.26776671  0.51260603    -0.25200
C606        C  0.20896837  0.29016055  0.54559856    -0.24500
C607        C  0.23150469  0.29889360  0.55871925     0.40100
C608        C  0.25087049  0.28531914  0.53867673    -0.26900
O609        O  0.22255683  0.23368381  0.45779177    -0.58800
H610        H  0.18920268  0.26135002  0.50089296     0.15800
O611        O  0.23484947  0.32101034  0.59032713    -0.60300
H612        H  0.26804909  0.29194779  0.54963277     0.14200
H613        H  0.27989635  0.16655023  0.45404862     0.46100
H614        H  0.21634722  0.21716063  0.47574900     0.41400
H615        H  0.23373195  0.31265152  0.62327935     0.44900
H616        H  0.27876148  0.29466667  0.42899372     0.36400
C617        C  0.35445390  0.21298388  0.63485134    -0.27900
C618        C  0.37533070  0.22540650  0.64959913     0.01700
C619        C  0.39569294  0.21961627  0.62295167     0.29800
C620        C  0.39469825  0.20307463  0.58050256    -0.19700
C621        C  0.37353547  0.19194921  0.56401081    -0.29100
C622        C  0.35340935  0.19638443  0.59260132     0.43900
C623        C  0.37543839  0.24482227  0.69222793     0.05000
O624        O  0.41665764  0.22977749  0.63855189    -0.57600
H625        H  0.41042820  0.19973061  0.55957779     0.18000
O626        O  0.33223074  0.18656515  0.57771517    -0.64300
H627        H  0.33866310  0.21710294  0.65518466     0.16400
C628        C  0.38212353  0.27332623  0.68765645     0.28700
C629        C  0.38189861  0.29130108  0.72839902    -0.25200
C630        C  0.37477065  0.28143152  0.77423177    -0.24500
C631        C  0.36759795  0.25287793  0.77829070     0.40100
C632        C  0.36788984  0.23503753  0.73755137    -0.26900
O633        O  0.38855976  0.28397073  0.64330864    -0.58800
H634        H  0.38726795  0.31305485  0.72397692     0.15800
O635        O  0.35993811  0.24209577  0.82170606    -0.60300
H636        H  0.36234805  0.21330336  0.74148515     0.14200
H637        H  0.33070851  0.16770627  0.59301787     0.46100
H638        H  0.37385387  0.28954286  0.62726034     0.41400
H639        H  0.37376369  0.23307130  0.83666311     0.44900
H640        H  0.42088236  0.24479631  0.61510028     0.36400
C641        C  0.36739150  0.26432189  0.23520144    -0.27900
C642        C  0.37542797  0.25467673  0.19002605     0.01700
C643        C  0.38384826  0.22670843  0.18586799     0.29800
C644        C  0.38409259  0.20888063  0.22667880    -0.19700
C645        C  0.37597012  0.21851492  0.27214483    -0.29100
C646        C  0.36751563  0.24666118  0.27586535     0.43900
C647        C  0.37467111  0.27405029  0.14762463     0.05000
O648        O  0.39171424  0.21653945  0.14201828    -0.57600
H649        H  0.39067588  0.18749274  0.22265972     0.18000
O650        O  0.35959660  0.25748684  0.31922218    -0.64300
H651        H  0.36105866  0.28584209  0.23907610     0.16400
C652        C  0.35368114  0.28689749  0.13310970     0.28700
C653        C  0.35314762  0.30459890  0.09237576    -0.25200
C654        C  0.37326343  0.30926563  0.06462247    -0.24500
C655        C  0.39450367  0.29760895  0.08080580     0.40100
C656        C  0.39505100  0.28008889  0.12182667    -0.26900
O657        O  0.33338688  0.28132352  0.15728035    -0.58800
H658        H  0.33660023  0.31321025  0.08079137     0.15800
O659        O  0.41473122  0.30236049  0.05588683    -0.60300
H660        H  0.41142263  0.27091456  0.13325359     0.14200
H661        H  0.34267361  0.25378614  0.31938835     0.46100
H662        H  0.32701505  0.26423060  0.14116006     0.41400
H663        H  0.42020456  0.32100157  0.06755672     0.44900
H664        H  0.37785713  0.20845486  0.12588759     0.36400
C665        C  0.26859155  0.26579037  0.94591496    -0.27900
C666        C  0.26816779  0.25854340  0.99553375     0.01700
C667        C  0.28847163  0.26163443  0.02359930     0.29800
C668        C  0.30858157  0.27187417  0.00214320    -0.19700
C669        C  0.30846389  0.28072977  0.95368522    -0.29100
C670        C  0.28847475  0.27746582  0.92521148     0.43900
C671        C  0.24686468  0.24687321  0.01741968     0.05000
O672        O  0.28860713  0.25584847  0.07250198    -0.57600
H673        H  0.32385360  0.27484094  0.02443222     0.18000
O674        O  0.28803901  0.28631978  0.87771672    -0.64300
H675        H  0.25343646  0.26273903  0.92332668     0.16400
C676        C  0.22485629  0.25919295  0.00931422     0.28700
C677        C  0.20497088  0.24616746  0.02777899    -0.25200
C678        C  0.20681344  0.22101537  0.05448520    -0.24500
C679        C  0.22898490  0.21001188  0.06557956     0.40100
C680        C  0.24864128  0.22258185  0.04624718    -0.26900
O681        O  0.22267669  0.28402552  0.98390890    -0.58800
H682        H  0.18809659  0.25507071  0.01928049     0.15800
O683        O  0.23165818  0.18670844  0.09484521    -0.60300
H684        H  0.26533305  0.21266501  0.05277599     0.14200
H685        H  0.29582057  0.27101308  0.85894517     0.46100
H686        H  0.21504892  0.27888937  0.95282077     0.41400
H687        H  0.23527483  0.17077979  0.07248360     0.44900
H688        H  0.28353865  0.27367210  0.08856860     0.36400
C689        C  0.26784068  0.39555812  0.81212193    -0.27900
C690        C  0.26685668  0.38657880  0.76351466     0.01700
C691        C  0.28683932  0.37492952  0.74164506     0.29800
C692        C  0.30718352  0.37147851  0.76881915    -0.19700
C693        C  0.30798777  0.37929133  0.81822836    -0.29100
C694        C  0.28815691  0.39216907  0.83940174     0.43900
C695        C  0.24447487  0.38713566  0.73708489     0.05000
O696        O  0.28636421  0.36570434  0.69427908    -0.57600
H697        H  0.32207941  0.36159104  0.75155247     0.18000
O698        O  0.28806546  0.40067655  0.88716142    -0.64300
H699        H  0.25260291  0.40470528  0.82929526     0.16400
C700        C  0.22562041  0.37124614  0.75416301     0.28700
C701        C  0.20529459  0.36961902  0.72668587    -0.25200
C702        C  0.20328485  0.38366433  0.68178927    -0.24500
C703        C  0.22189413  0.40045958  0.66559571     0.40100
C704        C  0.24231706  0.40201068  0.69314557    -0.26900
O705        O  0.22753489  0.35555237  0.79592104    -0.58800
H706        H  0.19142073  0.35625893  0.73975105     0.15800
O707        O  0.22057813  0.41490882  0.62248472    -0.60300
H708        H  0.25668521  0.41446147  0.67979227     0.14200
H709        H  0.29429875  0.42018485  0.88682952     0.46100
H710        H  0.21912469  0.36659176  0.82123323     0.41400
H711        H  0.21248221  0.43290524  0.63053983     0.44900
H712        H  0.28006444  0.34627859  0.69571998     0.36400
C713        C  0.72538169  0.23836761  0.96937208    -0.27900
C714        C  0.74643909  0.25340168  0.96815622     0.01700
C715        C  0.74677549  0.28029346  0.94598434     0.29800
C716        C  0.72632726  0.29217422  0.92846174    -0.19700
C717        C  0.70504367  0.27850823  0.93473157    -0.29100
C718        C  0.70464349  0.25100773  0.95372243     0.43900
C719        C  0.76757222  0.24179651  0.99214192     0.05000
O720        O  0.76656899  0.29622459  0.94447932    -0.57600
H721        H  0.72680138  0.31346105  0.91392902     0.18000
O722        O  0.68398858  0.23762299  0.96199995    -0.64300
H723        H  0.72476564  0.21729665  0.98458485     0.16400
C724        C  0.76648006  0.22880961  0.03834406     0.28700
C725        C  0.78660913  0.21765103  0.05943568    -0.25200
C726        C  0.80812585  0.22027264  0.03622450    -0.24500
C727        C  0.80957638  0.23481864  0.99184848     0.40100
C728        C  0.78930232  0.24465592  0.96949114    -0.26900
O729        O  0.74601590  0.22772014  0.06384886    -0.58800
H730        H  0.78537245  0.20657957  0.09382976     0.15800
O731        O  0.83069323  0.23879726  0.96969631    -0.60300
H732        H  0.79066284  0.25410485  0.93376774     0.14200
H733        H  0.68085110  0.22681873  0.93174781     0.46100
H734        H  0.74181054  0.20739896  0.06503403     0.41400
H735        H  0.82874796  0.23301998  0.93534447     0.44900
H736        H  0.76674201  0.30688799  0.97562555     0.36400
C737        C  0.72406882  0.39440944  0.74889029    -0.27900
C738        C  0.74617478  0.38514380  0.76376973     0.01700
C739        C  0.74871125  0.37450721  0.81147655     0.29800
C740        C  0.72944839  0.37249756  0.84242690    -0.19700
C741        C  0.70710196  0.38029690  0.82670118    -0.29100
C742        C  0.70467882  0.39189212  0.77955497     0.43900
C743        C  0.76616494  0.38501855  0.72882591     0.05000
O744        O  0.76978339  0.36479701  0.82773140    -0.57600
H745        H  0.73196476  0.36357808  0.87831471     0.18000
O746        O  0.68336205  0.39998055  0.76219752    -0.64300
H747        H  0.72169040  0.40322458  0.71288685     0.14800
C748        C  0.76398104  0.37363137  0.68147963     0.28700
C749        C  0.78349852  0.37080798  0.65129332    -0.25200
C750        C  0.80568168  0.37874196  0.66740981    -0.24500
C751        C  0.80767962  0.39139587  0.71389280     0.40100
C752        C  0.78807735  0.39458758  0.74378952    -0.26900
O753        O  0.74303501  0.36398865  0.66491242    -0.58800
H754        H  0.78131045  0.36122720  0.61574867     0.15800
O755        O  0.82881228  0.39971895  0.73153223    -0.60300
H756        H  0.79016159  0.40407066  0.77942920     0.14200
H757        H  0.68127398  0.41978369  0.77315190     0.46100
H758        H  0.74236301  0.34391632  0.67515508     0.41400
H759        H  0.83013099  0.41991890  0.72259453     0.44900
H760        H  0.77044646  0.34461235  0.81796889     0.36400
C761        C  0.65803792  0.21490387  0.63914866    -0.27900
C762        C  0.63815380  0.23125293  0.64855474     0.01700
C763        C  0.61861464  0.22810015  0.61859662     0.29800
C764        C  0.61956708  0.21001755  0.57813101    -0.19700
C765        C  0.63988938  0.19461461  0.56688109    -0.29100
C766        C  0.65904328  0.19668111  0.59880554     0.43900
C767        C  0.63782849  0.25123880  0.69019552     0.05000
O768        O  0.59870965  0.24323183  0.62780543    -0.57600
H769        H  0.60459818  0.20889188  0.55442933     0.18000
O770        O  0.67943351  0.18264798  0.58917547    -0.64300
H771        H  0.67309289  0.21690536  0.66244080     0.16400
C772        C  0.63532906  0.24108669  0.73775562     0.28700
C773        C  0.63480863  0.25997914  0.77693330    -0.25200
C774        C  0.63710591  0.28940369  0.76997196    -0.24500
C775        C  0.63995239  0.29954547  0.72206717     0.40100
C776        C  0.64006051  0.28048978  0.68257795    -0.26900
O777        O  0.63276451  0.21269627  0.74620262    -0.58800
H778        H  0.63271415  0.25133375  0.81313442     0.15800
O779        O  0.64213160  0.32792685  0.71323191    -0.60300
H780        H  0.64203782  0.28851992  0.64592245     0.14200
H781        H  0.67799424  0.16419329  0.60591928     0.46100
H782        H  0.64864680  0.20550359  0.75274674     0.41400
H783        H  0.65907492  0.33136388  0.71225505     0.44900
H784        H  0.59002502  0.23181878  0.65187687     0.36400
C785        C  0.63442992  0.23070681  0.19155160    -0.27900
C786        C  0.64141433  0.25890715  0.19836884     0.01700
C787        C  0.64849239  0.26759234  0.24503455     0.29800
C788        C  0.64876021  0.24821998  0.28355779    -0.19700
C789        C  0.64186612  0.21992810  0.27690008    -0.29100
C790        C  0.63446256  0.21137130  0.23023068     0.43900
C791        C  0.64093447  0.27892231  0.15649745     0.05000
O792        O  0.65386844  0.29537076  0.25398025    -0.57600
H793        H  0.65407928  0.25568321  0.31911541     0.18000
O794        O  0.62726776  0.18421815  0.22176122    -0.64300
H795        H  0.62892055  0.22359009  0.15590501     0.16400
C796        C  0.66060273  0.29488600  0.14333005     0.28700
C797        C  0.66019680  0.31176398  0.10141225    -0.25200
C798        C  0.64073803  0.31211498  0.07087044    -0.24500
C799        C  0.62092234  0.29670285  0.08449247     0.40100
C800        C  0.62099272  0.28069598  0.12732690    -0.26900
O801        O  0.68087991  0.29260468  0.16908171    -0.58800
H802        H  0.67587453  0.32258401  0.09048945     0.15800
O803        O  0.60161184  0.29656452  0.05532719    -0.60300
H804        H  0.60566886  0.26874999  0.13682554     0.14200
H805        H  0.61026391  0.18460078  0.22744762     0.46100
H806        H  0.68895968  0.27581951  0.15532639     0.41400
H807        H  0.60240160  0.27845364  0.03708241     0.44900
H808        H  0.67042829  0.29538531  0.26357377     0.36400
C809        C  0.53151383  0.35932293  0.87510314    -0.27900
C810        C  0.51923985  0.34094394  0.90562307     0.01700
C811        C  0.53183362  0.32249165  0.93617479     0.29800
C812        C  0.55611683  0.32189201  0.93452832    -0.19700
C813        C  0.56844552  0.33978461  0.90308281    -0.29100
C814        C  0.55579534  0.35903018  0.87383198     0.43900
C815        C  0.49342960  0.34007601  0.90331378     0.05000
O816        O  0.52056982  0.30471836  0.96756326    -0.57600
H817        H  0.56528421  0.30710377  0.95774205     0.18000
O818        O  0.56686996  0.37767603  0.84365528    -0.64300
H819        H  0.52225806  0.37347331  0.85092606     0.16400
C820        C  0.47979397  0.36494280  0.90515255     0.28700
C821        C  0.45556693  0.36333687  0.90119536    -0.25200
C822        C  0.44447071  0.33713774  0.89563147    -0.24500
C823        C  0.45815160  0.31228442  0.89430696     0.40100
C824        C  0.48231657  0.31395350  0.89749346    -0.26900
O825        O  0.48991041  0.39077201  0.91278165    -0.58800
H826        H  0.44542878  0.38268404  0.90313483     0.15800
O827        O  0.44820960  0.28624293  0.88817682    -0.60300
H828        H  0.49245553  0.29464411  0.89475659     0.14200
H829        H  0.56741650  0.36820124  0.81142102     0.46100
H830        H  0.48822321  0.40110434  0.88168130     0.41400
H831        H  0.44655212  0.27849213  0.92148094     0.44900
H832        H  0.51845799  0.31582603  0.99795099     0.36400
C833        C  0.12994859  0.53949791  0.51744451    -0.27900
C834        C  0.12136717  0.51809382  0.48731017     0.01700
C835        C  0.11460366  0.52490527  0.43940873     0.29800
C836        C  0.11827346  0.55229800  0.42126209    -0.19700
C837        C  0.12859683  0.57322442  0.45036870    -0.29100
C838        C  0.13360361  0.56674612  0.49959192     0.43900
C839        C  0.12273061  0.48837914  0.50465404     0.05000
O840        O  0.10426770  0.50492696  0.41040583    -0.57600
H841        H  0.11355076  0.55689747  0.38395500     0.18000
O842        O  0.14260578  0.58662644  0.53060452    -0.64300
H843        H  0.13508571  0.53470759  0.55445977     0.16400
C844        C  0.13611215  0.46843067  0.47870377     0.28700
C845        C  0.14034743  0.44174847  0.49832435    -0.25200
C846        C  0.13202468  0.43430842  0.54471517    -0.24500
C847        C  0.11820905  0.45402984  0.57048755     0.40100
C848        C  0.11371188  0.48084580  0.55045017    -0.26900
O849        O  0.14638701  0.47531672  0.43528814    -0.58800
H850        H  0.15113618  0.42722462  0.47761173     0.15800
O851        O  0.10952460  0.44771054  0.61562663    -0.60300
H852        H  0.10365296  0.49608739  0.57125016     0.14200
H853        H  0.15963920  0.58338273  0.53004556     0.46100
H854        H  0.16109699  0.48468482  0.44417647     0.41400
H855        H  0.09452224  0.43833128  0.60936740     0.44900
H856        H  0.11474608  0.50218593  0.38223585     0.36400
C857        C  0.87017866  0.46834915  0.47897579    -0.27900
C858        C  0.88503987  0.48726865  0.50234490     0.01700
C859        C  0.89711101  0.47814809  0.54421164     0.29800
C860        C  0.89356359  0.45077127  0.56282158    -0.19700
C861        C  0.87791195  0.43214044  0.54031068    -0.29100
C862        C  0.86655095  0.44122244  0.49727051     0.43900
C863        C  0.88545657  0.51714806  0.48533255     0.05000
O864        O  0.91201737  0.49601634  0.56778922    -0.57600
H865        H  0.90263516  0.44440150  0.59553905     0.18000
O866        O  0.85166547  0.42384484  0.47248930    -0.64300
H867        H  0.86046489  0.47501762  0.44724343     0.16400
C868        C  0.88928901  0.52396867  0.43594578     0.28700
C869        C  0.88530555  0.55167382  0.41922689    -0.25200
C870        C  0.87690904  0.57267414  0.45097553    -0.24500
C871        C  0.87436432  0.56614062  0.50086325     0.40100
C872        C  0.87863122  0.53867737  0.51755854    -0.26900
O873        O  0.89669925  0.50357321  0.40376710    -0.58800
H874        H  0.88762117  0.55632133  0.38094276     0.15800
O875        O  0.86691096  0.58623800  0.53353578    -0.60300
H876        H  0.87538406  0.53385544  0.55548445     0.14200
H877        H  0.83591413  0.42936864  0.48374922     0.46100
H878        H  0.88316163  0.49955159  0.38271261     0.41400
H879        H  0.88100902  0.59688565  0.54265412     0.44900
H880        H  0.92676923  0.49473149  0.54927876     0.36400
C881        C  0.97427325  0.66459266  0.34654523    -0.27900
C882        C  0.98658022  0.66460388  0.39059859     0.01700
C883        C  0.97419431  0.66662253  0.43475881     0.29800
C884        C  0.94997620  0.66911625  0.43437430    -0.19700
C885        C  0.93767910  0.66890301  0.39033199    -0.29100
C886        C  0.95001443  0.66644280  0.34618790     0.43900
C887        C  0.01233212  0.66389523  0.39000398     0.05000
O888        O  0.98560627  0.66601033  0.47850789    -0.57600
H889        H  0.94073397  0.67066129  0.46866605     0.18000
O890        O  0.93860702  0.66727892  0.30243202    -0.64300
H891        H  0.98352873  0.66367309  0.31223098     0.16400
C892        C  0.02469946  0.64232897  0.36556582     0.28700
C893        C  0.04902065  0.64279880  0.36429550    -0.25200
C894        C  0.06137514  0.66489024  0.38647928    -0.24500
C895        C  0.04890736  0.68614603  0.41175894     0.40100
C896        C  0.02466675  0.68555875  0.41316412    -0.26900
O897        O  0.01316871  0.62031635  0.34401757    -0.58800
H898        H  0.05819207  0.62606044  0.34516602     0.15800
O899        O  0.06016809  0.70767547  0.43528090    -0.60300
H900        H  0.01541686  0.70236532  0.43195985     0.14200
H901        H  0.93676570  0.64721762  0.29264769     0.46100
H902        H  0.01388997  0.62409231  0.30857038     0.41400
H903        H  0.06436827  0.69990522  0.46765408     0.44900
H904        H  0.98718282  0.64566042  0.48663658     0.36400
C905        C  0.87464951  0.96491312  0.01924985    -0.27900
C906        C  0.88320369  0.98554780  0.98767169     0.01700
C907        C  0.88879627  0.97784339  0.93942106     0.29800
C908        C  0.88430525  0.95029230  0.92262773    -0.19700
C909        C  0.87413466  0.93008653  0.95334773    -0.29100
C910        C  0.87003229  0.93752824  0.00265545     0.43900
C911        C  0.88302353  0.01557164  0.00393946     0.05000
O912        O  0.89873691  0.99714176  0.90865155    -0.57600
H913        H  0.88825340  0.94502334  0.88511664     0.18000
O914        O  0.86103425  0.91845859  0.03503128    -0.64300
H915        H  0.87033578  0.97045703  0.05649266     0.16400
C916        C  0.86876218  0.03531989  0.97996441     0.28700
C917        C  0.86629444  0.06272120  0.99827906    -0.25200
C918        C  0.87740048  0.07115363  0.04148300    -0.24500
C919        C  0.89197757  0.05151820  0.06535190     0.40100
C920        C  0.89459886  0.02391356  0.04666423    -0.26900
O921        O  0.85612286  0.02764212  0.93983594    -0.58800
H922        H  0.85478114  0.07712529  0.97928931     0.15800
O923        O  0.90343374  0.05884129  0.10717282    -0.60300
H924        H  0.90538169  0.00883123  0.06596939     0.14200
H925        H  0.84408476  0.92206981  0.03511255     0.46100
H926        H  0.84164812  0.01933587  0.95292235     0.41400
H927        H  0.91859418  0.06625942  0.09614367     0.44900
H928        H  0.88709920  0.00076598  0.88286822     0.36400
C929        C  0.85752662  0.70183145  0.64988320    -0.27900
C930        C  0.87544270  0.72150768  0.65633376     0.01700
C931        C  0.89370453  0.72228287  0.62243227     0.29800
C932        C  0.89275589  0.70554670  0.58042238    -0.19700
C933        C  0.87377464  0.68778217  0.57166314    -0.29100
C934        C  0.85667265  0.68487305  0.60792780     0.43900
C935        C  0.87445803  0.74195080  0.69730591     0.05000
O936        O  0.91233932  0.73969037  0.62982471    -0.57600
H937        H  0.90613980  0.70786481  0.55299270     0.18000
O938        O  0.83771876  0.66807536  0.60024518    -0.64300
H939        H  0.84349483  0.70078260  0.67608116     0.16400
C940        C  0.87308633  0.77135779  0.68896735     0.28700
C941        C  0.87233352  0.79033297  0.72831736    -0.25200
C942        C  0.87257568  0.78038556  0.77641136    -0.24500
C943        C  0.87398037  0.75079595  0.78443196     0.40100
C944        C  0.87467242  0.73197992  0.74512390    -0.26900
O945        O  0.87213796  0.78174108  0.64245091    -0.58800
H946        H  0.87118321  0.81281846  0.72116264     0.15800
O947        O  0.87495221  0.73986786  0.83059547    -0.60300
H948        H  0.87574151  0.70945323  0.75202557     0.14200
H949        H  0.84236606  0.64910651  0.61227542     0.46100
H950        H  0.85552134  0.78111415  0.63335322     0.41400
H951        H  0.89161728  0.74001937  0.83941627     0.44900
H952        H  0.91059126  0.75517684  0.60589878     0.36400
C953        C  0.85167572  0.79558966  0.14218447    -0.27900
C954        C  0.86715099  0.77273943  0.14683760     0.01700
C955        C  0.88424356  0.76838629  0.11109486     0.29800
C956        C  0.88507967  0.78595648  0.07026612    -0.19700
C957        C  0.86883003  0.80802401  0.06394491    -0.29100
C958        C  0.85237904  0.81316097  0.10115736     0.43900
C959        C  0.86582207  0.75392224  0.18971935     0.05000
O960        O  0.89987788  0.74653880  0.11518432    -0.57600
H961        H  0.89785705  0.78133564  0.04236067     0.18000
O962        O  0.83629285  0.83450492  0.09702632    -0.64300
H963        H  0.83865393  0.79938998  0.16995690     0.16400
C964        C  0.87229826  0.76390763  0.23577099     0.28700
C965        C  0.87203022  0.74573540  0.27578478    -0.25200
C966        C  0.86513833  0.71728139  0.27111114    -0.24500
C967        C  0.85827598  0.70740928  0.22477687     0.40100
C968        C  0.85871884  0.72570621  0.18452159    -0.26900
O969        O  0.87988931  0.79114225  0.24160214    -0.58800
H970        H  0.87751299  0.75406754  0.31064864     0.15800
O971        O  0.85101354  0.68009965  0.21832502    -0.60300
H972        H  0.85358679  0.71784761  0.14908318     0.14200
H973        H  0.84406289  0.85155593  0.10997366     0.46100
H974        H  0.86606517  0.80204701  0.25248613     0.41400
H975        H  0.86509264  0.66937388  0.20853076     0.44900
H976        H  0.91278283  0.75422114  0.13489984     0.36400
C977        C  0.13926471  0.96659740  0.01888096    -0.27900
C978        C  0.12834971  0.98770286  0.99127160     0.01700
C979        C  0.11938788  0.98042930  0.94508214     0.29800
C980        C  0.12201717  0.95278421  0.92688361    -0.19700
C981        C  0.13335725  0.93176167  0.95422580    -0.29100
C982        C  0.14180081  0.93900973  0.00100517     0.43900
C983        C  0.12861324  0.01757651  0.00911254     0.05000
O984        O  0.10833830  0.00029439  0.91701110    -0.57600
H985        H  0.11533545  0.94789041  0.89103008     0.18000
O986        O  0.15321727  0.91957024  0.02935343    -0.64300
H987        H  0.14680822  0.97174934  0.05384724     0.16400
C988        C  0.12214831  0.02491440  0.05715493     0.28700
C989        C  0.12524043  0.05272868  0.07433110    -0.25200
C990        C  0.13488606  0.07365798  0.04433852    -0.24500
C991        C  0.14056093  0.06632306  0.99564163     0.40100
C992        C  0.13743962  0.03869087  0.97873933    -0.26900
O993        O  0.11241139  0.00514027  0.08726921    -0.58800
H994        H  0.12044322  0.05773823  0.11151241     0.15800
O995        O  0.14961947  0.08580227  0.96406561    -0.60300
H996        H  0.14285960  0.03352909  0.94198432     0.14200
H997        H  0.16981899  0.92147679  0.02072762     0.46100
H998        H  0.12422297  0.00120621  0.11250442     0.41400
H999        H  0.16665600  0.08342667  0.96638216     0.44900
H1000       H  0.09214029  0.00081888  0.92911783     0.36400
C1001       C  0.13051432  0.78197132  0.67322070    -0.27900
C1002       C  0.12776281  0.75258675  0.67874610     0.01700
C1003       C  0.12498943  0.74147238  0.72577697     0.29800
C1004       C  0.12594091  0.75930608  0.76632701    -0.19700
C1005       C  0.12915218  0.78862285  0.76115886    -0.29100
C1006       C  0.13098237  0.80000089  0.71396107     0.43900
C1007       C  0.12815524  0.73352246  0.63561205     0.05000
O1008       O  0.12126066  0.71312894  0.73253298    -0.57600
H1009       H  0.12397946  0.75007772  0.80214401     0.18000
O1010       O  0.13433605  0.82841072  0.70728071    -0.64300
H1011       H  0.13273338  0.79089917  0.63725509     0.16400
C1012       C  0.11310371  0.73807129  0.59618651     0.28700
C1013       C  0.11422842  0.72039404  0.55538174    -0.25200
C1014       C  0.13042822  0.69797033  0.55251976    -0.24500
C1015       C  0.14496536  0.69282576  0.59277108     0.40100
C1016       C  0.14375424  0.71052509  0.63379551    -0.26900
O1017       O  0.09747682  0.76007210  0.59677481    -0.58800
H1018       H  0.10290856  0.72511481  0.52498882     0.15800
O1019       O  0.16097885  0.67127123  0.59186783    -0.60300
H1020       H  0.15547746  0.70670530  0.66388171     0.14200
H1021       H  0.11860891  0.83648956  0.70254248     0.46100
H1022       H  0.08292997  0.75194035  0.60976091     0.41400
H1023       H  0.15228388  0.65415007  0.60163793     0.44900
H1024       H  0.10428004  0.71071308  0.72938640     0.36400
C1025       C  0.11119538  0.77625752  0.11081243    -0.27900
C1026       C  0.12986593  0.77617949  0.14338783     0.01700
C1027       C  0.14919584  0.79339135  0.13368332     0.29800
C1028       C  0.15017734  0.80899237  0.09043691    -0.19700
C1029       C  0.13211317  0.80771771  0.05625128    -0.29100
C1030       C  0.11208604  0.79190943  0.06777847     0.43900
C1031       C  0.12955352  0.75659317  0.18545232     0.05000
O1032       O  0.16809624  0.79305695  0.16399000    -0.57600
H1033       H  0.16578343  0.82076312  0.08246275     0.18000
O1034       O  0.09377134  0.79020686  0.03611747    -0.64300
H1035       H  0.09608471  0.76342217  0.11813677     0.16400
C1036       C  0.13301887  0.76649500  0.23308597     0.28700
C1037       C  0.13321848  0.74743147  0.27181846    -0.25200
C1038       C  0.12992474  0.71823616  0.26427132    -0.24500
C1039       C  0.12590654  0.70840857  0.21660187     0.40100
C1040       C  0.12572860  0.72755843  0.17769917    -0.26900
O1041       O  0.13500934  0.79493350  0.24235124    -0.58800
H1042       H  0.13575355  0.75580380  0.30815226     0.15800
O1043       O  0.12202452  0.68030931  0.20750140    -0.60300
H1044       H  0.12286885  0.71965637  0.14115946     0.14200
H1045       H  0.08367791  0.80660914  0.04421814     0.46100
H1046       H  0.15057258  0.79744473  0.25689685     0.41400
H1047       H  0.13759298  0.67195869  0.20159189     0.44900
H1048       H  0.16915882  0.81249582  0.17744166     0.36400
C1049       C  0.02631286  0.85556363  0.85645481    -0.27900
C1050       C  0.01479272  0.84251775  0.89537988     0.01700
C1051       C  0.02796002  0.82908120  0.93196945     0.29800
C1052       C  0.05215270  0.82799729  0.92836633    -0.19700
C1053       C  0.06355854  0.84093626  0.88932214    -0.29100
C1054       C  0.05051747  0.85501398  0.85345085     0.43900
C1055       C  0.98909393  0.84150576  0.89582387     0.05000
O1056       O  0.01733809  0.81687960  0.97129808    -0.57600
H1057       H  0.06206137  0.81732464  0.95641433     0.18000
O1058       O  0.06122605  0.86749298  0.81446991    -0.64300
H1059       H  0.01649956  0.86551743  0.82753229     0.16400
C1060       C  0.97552328  0.86613943  0.89019169     0.28700
C1061       C  0.95128741  0.86425191  0.88874879    -0.25200
C1062       C  0.94016340  0.83794608  0.89260477    -0.24500
C1063       C  0.95388367  0.81333155  0.89848777     0.40100
C1064       C  0.97804300  0.81529264  0.90003887    -0.26900
O1065       O  0.98577537  0.89221665  0.88784291    -0.58800
H1066       H  0.94120356  0.88352007  0.88478161     0.15800
O1067       O  0.94397917  0.78714474  0.90254094    -0.60300
H1068       H  0.98824160  0.79608448  0.90363680     0.14200
H1069       H  0.06396897  0.85199046  0.79078853     0.46100
H1070       H  0.98420500  0.89826085  0.85344429     0.41400
H1071       H  0.94259969  0.78005727  0.86871804     0.44900
H1072       H  0.01476170  0.83254724  0.99475867     0.36400
C1073       C  0.38894505  0.52481172  0.04465417    -0.27900
C1074       C  0.38077570  0.51780521  0.99801506     0.01700
C1075       C  0.37045154  0.53898384  0.96934293     0.29800
C1076       C  0.36753771  0.56629457  0.98815376    -0.19700
C1077       C  0.37470490  0.57315001  0.03573539    -0.29100
C1078       C  0.38613646  0.55222064  0.06347435     0.43900
C1079       C  0.38013476  0.48775237  0.98244992     0.05000
O1080       O  0.36126317  0.53257454  0.92463353    -0.57600
H1081       H  0.35869823  0.58182924  0.96584270     0.18000
O1082       O  0.39375091  0.55784072  0.10972536    -0.64300
H1083       H  0.39688238  0.50866679  0.06718240     0.16400
C1084       C  0.38973826  0.47843052  0.93796906     0.28700
C1085       C  0.38664790  0.45036342  0.92266439    -0.25200
C1086       C  0.37420930  0.43111302  0.95145595    -0.24500
C1087       C  0.36517196  0.44047934  0.99668998     0.40100
C1088       C  0.36820320  0.46845408  0.01163350    -0.26900
O1089       O  0.40192565  0.49663642  0.90896108    -0.58800
H1090       H  0.39386087  0.44374087  0.88800379     0.15800
O1091       O  0.35221834  0.42299832  0.02561186    -0.60300
H1092       H  0.36046429  0.47537998  0.04564730     0.14200
H1093       H  0.40950400  0.56576795  0.10552887     0.46100
H1094       H  0.41821327  0.49519203  0.92031693     0.41400
H1095       H  0.36326307  0.41528840  0.04992154     0.44900
H1096       H  0.37163878  0.54170139  0.90059016     0.36400
C1097       C  0.24302899  0.77636443  0.93578609    -0.27900
C1098       C  0.24100744  0.75113750  0.96198484     0.01700
C1099       C  0.21889191  0.73903050  0.96816864     0.29800
C1100       C  0.19907517  0.75357335  0.95226777    -0.19700
C1101       C  0.20109788  0.77996809  0.92944654    -0.29100
C1102       C  0.22343173  0.79044277  0.91868548     0.43900
C1103       C  0.26187345  0.73915668  0.98579290     0.05000
O1104       O  0.21639348  0.71364691  0.99156880    -0.57600
H1105       H  0.18213137  0.74495455  0.96028413     0.18000
O1106       O  0.22636457  0.81545909  0.89426333    -0.64300
H1107       H  0.25980560  0.78609401  0.93064343     0.16400
C1108       C  0.28291699  0.73602251  0.96008284     0.28700
C1109       C  0.30267253  0.72617861  0.98416506    -0.25200
C1110       C  0.30167325  0.71874376  0.03340077    -0.24500
C1111       C  0.28079659  0.72174586  0.05921454     0.40100
C1112       C  0.26116167  0.73248769  0.03564989    -0.26900
O1113       O  0.28392415  0.74080935  0.91085606    -0.58800
H1114       H  0.31852794  0.72286774  0.96361010     0.15800
O1115       O  0.27954593  0.71454370  0.10747072    -0.60300
H1116       H  0.24533012  0.73553684  0.05634593     0.14200
H1117       H  0.22453495  0.81064843  0.85934924     0.46100
H1118       H  0.29424321  0.75736960  0.90672913     0.41400
H1119       H  0.27373218  0.69483874  0.10782511     0.44900
H1120       H  0.21870879  0.69906380  0.96596676     0.36400
C1121       C  0.28313129  0.62977744  0.25125622    -0.27900
C1122       C  0.26303524  0.61928868  0.22896700     0.01700
C1123       C  0.26435546  0.61025443  0.18011284     0.29800
C1124       C  0.28519141  0.61275559  0.15395994    -0.19700
C1125       C  0.30518375  0.62421725  0.17565077    -0.29100
C1126       C  0.30396808  0.63241524  0.22517284     0.43900
C1127       C  0.24053874  0.61980327  0.25601241     0.05000
O1128       O  0.24523397  0.59938916  0.15726276    -0.57600
H1129       H  0.28549302  0.60626409  0.11612499     0.18000
O1130       O  0.32278570  0.64387359  0.24828107    -0.64300
H1131       H  0.28243965  0.63704792  0.28866338     0.16400
C1132       C  0.23813894  0.60682342  0.30188109     0.28700
C1133       C  0.21742966  0.60988255  0.32856016    -0.25200
C1134       C  0.19862160  0.62560451  0.31004960    -0.24500
C1135       C  0.20095795  0.63811287  0.26353455     0.40100
C1136       C  0.22164693  0.63502678  0.23705486    -0.26900
O1137       O  0.25603685  0.59128470  0.32118787    -0.58800
H1138       H  0.21616982  0.60008595  0.36405045     0.15800
O1139       O  0.18345970  0.65430199  0.24409769    -0.60300
H1140       H  0.22322572  0.64547951  0.20216754     0.14200
H1141       H  0.32132823  0.66458439  0.24335125     0.46100
H1142       H  0.25427790  0.57205066  0.30726464     0.41400
H1143       H  0.18600864  0.67366280  0.25694064     0.44900
H1144       H  0.24551169  0.57893652  0.16477196     0.36400
C1145       C  0.61133949  0.47609066  0.96577237    -0.27900
C1146       C  0.62546125  0.48659446  0.00341219     0.01700
C1147       C  0.64383540  0.46952481  0.02039027     0.29800
C1148       C  0.64810648  0.44300042  0.99944710    -0.19700
C1149       C  0.63453195  0.43271693  0.96069054    -0.29100
C1150       C  0.61571857  0.44946578  0.94447618     0.43900
C1151       C  0.62241890  0.51610989  0.02215560     0.05000
O1152       O  0.65833200  0.47895508  0.05642862    -0.57600
H1153       H  0.66260666  0.43072350  0.01315236     0.18000
O1154       O  0.60177504  0.44041845  0.90725867    -0.64300
H1155       H  0.59698173  0.48873164  0.95241692     0.16400
C1156       C  0.62267106  0.53923803  0.98998445     0.28700
C1157       C  0.62401545  0.56689121  0.00813800    -0.25200
C1158       C  0.62501622  0.57233487  0.05847726    -0.24500
C1159       C  0.62293437  0.54932663  0.09081124     0.40100
C1160       C  0.62174772  0.52154673  0.07256670    -0.26900
O1161       O  0.62371845  0.53497684  0.94063077    -0.58800
H1162       H  0.62534947  0.58411420  0.98237279     0.15800
O1163       O  0.62381408  0.55343203  0.14019312    -0.60300
H1164       H  0.62121838  0.50408413  0.09798153     0.14200
H1165       H  0.58918720  0.42962217  0.92327252     0.46100
H1166       H  0.60789014  0.53924814  0.92856874     0.41400
H1167       H  0.60740408  0.55493385  0.15071130     0.44900
H1168       H  0.67079109  0.48934015  0.03930328     0.36400
C1169       C  0.76292376  0.77150685  0.96008205    -0.27900
C1170       C  0.76668980  0.75240623  0.99829503     0.01700
C1171       C  0.78961216  0.74600604  0.01257598     0.29800
C1172       C  0.80819767  0.75972270  0.99028851    -0.19700
C1173       C  0.80424285  0.78022090  0.95431697    -0.29100
C1174       C  0.78144024  0.78550178  0.93833233     0.43900
C1175       C  0.74652291  0.73890680  0.02187572     0.05000
O1176       O  0.79400101  0.72717691  0.04939231    -0.57600
H1177       H  0.82562246  0.75553052  0.00328934     0.18000
O1178       O  0.77697203  0.80492138  0.90248698    -0.64300
H1179       H  0.74549360  0.77582012  0.94731438     0.16400
C1180       C  0.72727390  0.75500368  0.03789690     0.28700
C1181       C  0.70735617  0.74141719  0.05506966    -0.25200
C1182       C  0.70645536  0.71182347  0.05716425    -0.24500
C1183       C  0.72639389  0.69588811  0.04389085     0.40100
C1184       C  0.74596346  0.70945115  0.02581823    -0.26900
O1185       O  0.72796184  0.78401262  0.03753316    -0.58800
H1186       H  0.69248052  0.75405572  0.06596384     0.15800
O1187       O  0.72656381  0.66688793  0.04541634    -0.60300
H1188       H  0.76048566  0.69672666  0.01323196     0.14200
H1189       H  0.77948692  0.79459878  0.87146504     0.46100
H1190       H  0.71711597  0.78995467  0.01153652     0.41400
H1191       H  0.73436261  0.66202731  0.07645658     0.44900
H1192       H  0.79466713  0.73878340  0.07945420     0.36400
C1193       C  0.71360571  0.61619080  0.27053552    -0.27900
C1194       C  0.73578824  0.61821956  0.24950387     0.01700
C1195       C  0.73750688  0.62017969  0.19832520     0.29800
C1196       C  0.71740848  0.62126726  0.16967744    -0.19700
C1197       C  0.69527800  0.62145812  0.19114071    -0.29100
C1198       C  0.69351962  0.61841440  0.24206181     0.43900
C1199       C  0.75677091  0.62021951  0.28128453     0.05000
O1200       O  0.75868813  0.62251045  0.17594840    -0.57600
H1201       H  0.71920219  0.62371840  0.13067722     0.18000
O1202       O  0.67225004  0.61765577  0.26446959    -0.64300
H1203       H  0.71177610  0.61370641  0.30951579     0.16400
C1204       C  0.75720339  0.63898306  0.32133482     0.28700
C1205       C  0.77739058  0.64186488  0.34916157    -0.25200
C1206       C  0.79769529  0.62667127  0.33764009    -0.24500
C1207       C  0.79729012  0.60775240  0.29785488     0.40100
C1208       C  0.77687820  0.60431802  0.27064839    -0.26900
O1209       O  0.73849353  0.65608475  0.33160093    -0.58800
H1210       H  0.77735877  0.65699679  0.37886034     0.15800
O1211       O  0.81660773  0.59221811  0.28557894    -0.60300
H1212       H  0.77688271  0.58937218  0.24071170     0.14200
H1213       H  0.66965598  0.63703551  0.27732748     0.46100
H1214       H  0.73195524  0.64875628  0.36254999     0.41400
H1215       H  0.82418022  0.60300178  0.25906095     0.44900
H1216       H  0.76216208  0.64300300  0.17613785     0.36400
C1217       C  0.52531504  0.65475402  0.12523682    -0.27900
C1218       C  0.51431043  0.67644774  0.09935482     0.01700
C1219       C  0.52780038  0.69816652  0.07899060     0.29800
C1220       C  0.55206289  0.69753400  0.08380470    -0.19700
C1221       C  0.56318388  0.67537460  0.10891809    -0.29100
C1222       C  0.54938842  0.65413284  0.13042906     0.43900
C1223       C  0.48867702  0.67617597  0.09541902     0.05000
O1224       O  0.51746691  0.71988006  0.05392264    -0.57600
H1225       H  0.56218466  0.71415657  0.06719381     0.18000
O1226       O  0.55915482  0.63258098  0.15688482    -0.64300
H1227       H  0.51510319  0.63828677  0.14210325     0.16400
C1228       C  0.47718508  0.65295292  0.07436016     0.28700
C1229       C  0.45292430  0.65133540  0.07620137    -0.25200
C1230       C  0.43981525  0.67285052  0.09849677    -0.24500
C1231       C  0.45130794  0.69648202  0.11832562     0.40100
C1232       C  0.47555765  0.69792700  0.11691409    -0.26900
O1233       O  0.48957250  0.63205756  0.05105664    -0.58800
H1234       H  0.44433428  0.63334405  0.05987184     0.15800
O1235       O  0.43907318  0.71747048  0.14173002    -0.60300
H1236       H  0.48418248  0.71565898  0.13398446     0.14200
H1237       H  0.56014010  0.63991793  0.19063326     0.46100
H1238       H  0.49005151  0.61598752  0.07418700     0.41400
H1239       H  0.43697884  0.73258931  0.11713348     0.44900
H1240       H  0.51671722  0.71326324  0.01970893     0.36400
C1241       C  0.61847477  0.04207709  0.52002374    -0.27900
C1242       C  0.62335061  0.01743389  0.49321764     0.01700
C1243       C  0.63107948  0.02014155  0.44461992     0.29800
C1244       C  0.63503879  0.04706941  0.42476544    -0.19700
C1245       C  0.63177616  0.07157064  0.45302668    -0.29100
C1246       C  0.62265599  0.06886558  0.50046751     0.43900
C1247       C  0.62228701  0.98932362  0.51775485     0.05000
O1248       O  0.63597061  0.99662906  0.41703440    -0.57600
H1249       H  0.64194484  0.04868146  0.38818994     0.18000
O1250       O  0.61834936  0.09229918  0.52868381    -0.64300
H1251       H  0.61203224  0.04051703  0.55697842     0.16400
C1252       C  0.63437664  0.98457468  0.56172894     0.28700
C1253       C  0.63474354  0.95763820  0.58289793    -0.25200
C1254       C  0.62375180  0.93481589  0.56020861    -0.24500
C1255       C  0.61097427  0.93962365  0.51728068     0.40100
C1256       C  0.61018509  0.96672451  0.49651806    -0.26900
O1257       O  0.64706163  0.00573750  0.58288142    -0.58800
H1258       H  0.64507283  0.95414337  0.61528227     0.15800
O1259       O  0.59986356  0.91773499  0.49445442    -0.60300
H1260       H  0.60055522  0.96994643  0.46314467     0.14200
H1261       H  0.60271265  0.09897061  0.51883795     0.46100
H1262       H  0.66231335  0.00520670  0.56611346     0.41400
H1263       H  0.58480450  0.91593689  0.51164028     0.44900
H1264       H  0.65253922  0.99225002  0.42346840     0.36400
C1265       C  0.77911970  0.74060687  0.53004582    -0.27900
C1266       C  0.76417223  0.75301902  0.49613808     0.01700
C1267       C  0.77038350  0.75328150  0.44644577     0.29800
C1268       C  0.79114189  0.74025991  0.43120534    -0.19700
C1269       C  0.80549663  0.72680919  0.46522863    -0.29100
C1270       C  0.79961884  0.72769292  0.51500895     0.43900
C1271       C  0.74245795  0.76597864  0.51407902     0.05000
O1272       O  0.75650276  0.76661123  0.41296431    -0.57600
H1273       H  0.79546277  0.73956681  0.39283067     0.18000
O1274       O  0.81350581  0.71505248  0.54922045    -0.64300
H1275       H  0.77462829  0.74042723  0.56837064     0.16400
C1276       C  0.72066262  0.75703041  0.49714769     0.28700
C1277       C  0.70046143  0.76972480  0.51528171    -0.25200
C1278       C  0.70174263  0.79109681  0.55070092    -0.24500
C1279       C  0.72349221  0.79899623  0.56936410     0.40100
C1280       C  0.74362727  0.78640453  0.55106910    -0.26900
O1281       O  0.71892796  0.73592626  0.46304804    -0.58800
H1282       H  0.68383733  0.76346032  0.50053050     0.15800
O1283       O  0.72519763  0.81866357  0.60601309    -0.60300
H1284       H  0.76028013  0.79285703  0.56542772     0.14200
H1285       H  0.82518581  0.72954257  0.55797993     0.46100
H1286       H  0.71810829  0.71812468  0.48202772     0.41400
H1287       H  0.72969928  0.83652744  0.58974391     0.44900
H1288       H  0.74962219  0.75123839  0.39307564     0.36400
C1289       C  0.78126728  0.88101742  0.74239113    -0.27900
C1290       C  0.76064526  0.88801521  0.76708514     0.01700
C1291       C  0.76157080  0.89233620  0.81785884     0.29800
C1292       C  0.78239043  0.88813235  0.84326126    -0.19700
C1293       C  0.80285228  0.87973977  0.81902841    -0.29100
C1294       C  0.80217298  0.87685174  0.76776133     0.43900
C1295       C  0.73798886  0.88781432  0.74062839     0.05000
O1296       O  0.74202583  0.89998568  0.84332319    -0.57600
H1297       H  0.78228624  0.89075771  0.88243711     0.18000
O1298       O  0.82169708  0.86952450  0.74195713    -0.64300
H1299       H  0.78099327  0.87748560  0.70342510     0.16400
C1300       C  0.73452948  0.90260286  0.69662271     0.28700
C1301       C  0.71367506  0.89959183  0.67056652    -0.25200
C1302       C  0.69577750  0.88222968  0.68803540    -0.24500
C1303       C  0.69910998  0.86810952  0.73286138     0.40100
C1304       C  0.71993318  0.87097192  0.75843334    -0.26900
O1305       O  0.75148105  0.91986448  0.67852805    -0.58800
H1306       H  0.71160991  0.91067092  0.63637313     0.15800
O1307       O  0.68248384  0.85052783  0.75146346    -0.60300
H1308       H  0.72227882  0.85902886  0.79168440     0.14200
H1309       H  0.82087026  0.84868086  0.73785685     0.46100
H1310       H  0.74837142  0.93868768  0.69332021     0.41400
H1311       H  0.68586439  0.83164005  0.73711347     0.44900
H1312       H  0.74137436  0.92093848  0.84144829     0.36400
C1313       C  0.63446402  0.77560394  0.81859723    -0.27900
C1314       C  0.64043225  0.74699244  0.81180625     0.01700
C1315       C  0.64557598  0.73735326  0.76449492     0.29800
C1316       C  0.64396716  0.75596330  0.72486119    -0.19700
C1317       C  0.63737898  0.78450441  0.73132707    -0.29100
C1318       C  0.63308956  0.79431494  0.77910757     0.43900
C1319       C  0.63970258  0.72730495  0.85409203     0.05000
O1320       O  0.65072381  0.70937844  0.75623685    -0.57600
H1321       H  0.64739585  0.74772536  0.68871707     0.18000
O1322       O  0.62704770  0.82197317  0.78773694    -0.64300
H1323       H  0.63061742  0.78344053  0.85483626     0.16400
C1324       C  0.65928363  0.71153908  0.86899587     0.28700
C1325       C  0.65826385  0.69484380  0.91122828    -0.25200
C1326       C  0.63798105  0.69390469  0.93978285    -0.24500
C1327       C  0.61813000  0.70876504  0.92343479     0.40100
C1328       C  0.61915815  0.72525992  0.88124462    -0.26900
O1329       O  0.67983539  0.71342043  0.84404982    -0.58800
H1330       H  0.67386055  0.68405171  0.92324801     0.15800
O1331       O  0.59782923  0.70838111  0.94951047    -0.60300
H1332       H  0.60387847  0.73703175  0.87013061     0.14200
H1333       H  0.64178990  0.83158599  0.79580553     0.46100
H1334       H  0.68839854  0.72900407  0.86000917     0.41400
H1335       H  0.58995541  0.69073082  0.93943743     0.44900
H1336       H  0.66745363  0.70885915  0.74783982     0.36400
C1337       C  0.61059999  0.78726355  0.37933292    -0.27900
C1338       C  0.63111955  0.78251886  0.35279961     0.01700
C1339       C  0.65158791  0.79613335  0.36788180     0.29800
C1340       C  0.65165601  0.81257738  0.41039236    -0.19700
C1341       C  0.63156580  0.81550034  0.43907464    -0.29100
C1342       C  0.61068906  0.80362437  0.42201573     0.43900
C1343       C  0.63131054  0.76255880  0.31068829     0.05000
O1344       O  0.67196423  0.79223141  0.34284124    -0.57600
H1345       H  0.66794647  0.82136866  0.42269054     0.18000
O1346       O  0.59044857  0.80690810  0.44772069    -0.64300
H1347       H  0.59453890  0.77768385  0.36751966     0.16400
C1348       C  0.62388549  0.73434656  0.31573203     0.28700
C1349       C  0.62496731  0.71561562  0.27595436    -0.25200
C1350       C  0.63332357  0.72451590  0.23041971    -0.24500
C1351       C  0.64080076  0.75290204  0.22567500     0.40100
C1352       C  0.63964831  0.77150443  0.26538968    -0.26900
O1353       O  0.61644250  0.72455458  0.35999823    -0.58800
H1354       H  0.61925064  0.69403427  0.28089943     0.15800
O1355       O  0.64886828  0.76305645  0.18214283    -0.60300
H1356       H  0.64527356  0.79315006  0.26069045     0.14200
H1357       H  0.58411382  0.82555425  0.43748435     0.46100
H1358       H  0.59932919  0.72393189  0.35760928     0.41400
H1359       H  0.66593258  0.76032699  0.18333181     0.44900
H1360       H  0.67946571  0.77554179  0.35811717     0.36400
C1361       C  0.37622222  0.96197397  0.47257732    -0.27900
C1362       C  0.38297195  0.98382479  0.50384334     0.01700
C1363       C  0.38754585  0.97742600  0.55313792     0.29800
C1364       C  0.38405109  0.94995630  0.57083928    -0.19700
C1365       C  0.37615103  0.92834596  0.53994904    -0.29100
C1366       C  0.37291311  0.93454739  0.48994343     0.43900
C1367       C  0.38234843  0.01352934  0.48600733     0.05000
O1368       O  0.39467962  0.99810008  0.58475524    -0.57600
H1369       H  0.38686791  0.94581892  0.60914134     0.18000
O1370       O  0.36603161  0.91413753  0.45752964    -0.64300
H1371       H  0.37230574  0.96639387  0.43480980     0.16400
C1372       C  0.39281659  0.02173495  0.44175522     0.28700
C1373       C  0.39009283  0.04957730  0.42453816    -0.25200
C1374       C  0.37683802  0.06950403  0.45071955    -0.24500
C1375       C  0.36631445  0.06098788  0.49491579     0.40100
C1376       C  0.36919412  0.03345601  0.51198544    -0.26900
O1377       O  0.40618459  0.00289677  0.41578544    -0.58800
H1378       H  0.39830278  0.05551531  0.39061349     0.15800
O1379       O  0.35258479  0.07914055  0.52150385    -0.60300
H1380       H  0.36034851  0.02739341  0.54514778     0.14200
H1381       H  0.34899709  0.91648187  0.45468981     0.46100
H1382       H  0.39710205  0.99846980  0.38613595     0.41400
H1383       H  0.33673482  0.07674927  0.50830988     0.44900
H1384       H  0.41152792  0.00031681  0.57836284     0.36400
C1385       C  0.37438575  0.73269985  0.75216542    -0.27900
C1386       C  0.37223256  0.74331746  0.79947302     0.01700
C1387       C  0.36990268  0.77266896  0.80696699     0.29800
C1388       C  0.36956554  0.79108928  0.76711590    -0.19700
C1389       C  0.37119301  0.78046039  0.71952541    -0.29100
C1390       C  0.37391166  0.75099333  0.71229673     0.43900
C1391       C  0.37223569  0.72369425  0.84105674     0.05000
O1392       O  0.36773429  0.78346695  0.85313423    -0.57600
H1393       H  0.36750514  0.81360250  0.77334793     0.18000
O1394       O  0.37706240  0.73995373  0.66649907    -0.64300
H1395       H  0.37651286  0.71016815  0.74618247     0.16400
C1396       C  0.35256182  0.70747828  0.85190045     0.28700
C1397       C  0.35168105  0.69202744  0.89524488    -0.25200
C1398       C  0.37038673  0.69240785  0.92807797    -0.24500
C1399       C  0.39088385  0.70673967  0.91469622     0.40100
C1400       C  0.39155212  0.72247550  0.87173646    -0.26900
O1401       O  0.33347457  0.70833037  0.82219392    -0.58800
H1402       H  0.33576511  0.68121415  0.90447686     0.15800
O1403       O  0.40994089  0.70688470  0.94452050    -0.60300
H1404       H  0.40693721  0.73452268  0.86307020     0.14200
H1405       H  0.36165727  0.73278982  0.65664491     0.46100
H1406       H  0.33579119  0.69264971  0.79871473     0.41400
H1407       H  0.41823795  0.68891829  0.93740171     0.44900
H1408       H  0.35089151  0.78271475  0.86053767     0.36400
C1409       C  0.39090687  0.77961635  0.37252774    -0.27900
C1410       C  0.37078840  0.77482734  0.34521477     0.01700
C1411       C  0.34975608  0.78753206  0.35987776     0.29800
C1412       C  0.34888145  0.80399322  0.40228250    -0.19700
C1413       C  0.36877900  0.80793354  0.43084127    -0.29100
C1414       C  0.39007867  0.79617345  0.41485385     0.43900
C1415       C  0.37165669  0.75603489  0.30204226     0.05000
O1416       O  0.32962387  0.78206167  0.33507715    -0.57600
H1417       H  0.33224179  0.81219343  0.41436132     0.18000
O1418       O  0.41001399  0.79975098  0.44129959    -0.64300
H1419       H  0.40723029  0.77013188  0.36133976     0.16400
C1420       C  0.36616143  0.76653957  0.25572264     0.28700
C1421       C  0.36575993  0.74827887  0.21564074    -0.25200
C1422       C  0.37076208  0.71925644  0.22069200    -0.24500
C1423       C  0.37687333  0.70887536  0.26715047     0.40100
C1424       C  0.37734722  0.72728136  0.30731357    -0.26900
O1425       O  0.36200388  0.79488667  0.24911815    -0.58800
H1426       H  0.36160580  0.75707175  0.18032162     0.15800
O1427       O  0.38244756  0.68091774  0.27386905    -0.60300
H1428       H  0.38175154  0.71899569  0.34287485     0.14200
H1429       H  0.41624960  0.81827031  0.43075250     0.46100
H1430       H  0.34539910  0.79644958  0.24007930     0.41400
H1431       H  0.36755850  0.67154183  0.28156167     0.44900
H1432       H  0.32488632  0.80033199  0.32041637     0.36400
C1433       C  0.47522201  0.80550730  0.62540874    -0.27900
C1434       C  0.48770944  0.82850157  0.60708931     0.01700
C1435       C  0.47583048  0.85115028  0.58509003     0.29800
C1436       C  0.45163465  0.85106524  0.58305753    -0.19700
C1437       C  0.43906725  0.82842631  0.60239682    -0.29100
C1438       C  0.45098877  0.80539713  0.62336265     0.43900
C1439       C  0.51315048  0.82896132  0.61151932     0.05000
O1440       O  0.48782527  0.87300933  0.56430811    -0.57600
H1441       H  0.44265669  0.86873852  0.56632307     0.18000
O1442       O  0.43913485  0.78319159  0.64337391    -0.64300
H1443       H  0.48427915  0.78797301  0.64236147     0.16400
C1444       C  0.52414563  0.85008205  0.63904518     0.28700
C1445       C  0.54833116  0.85132494  0.64033852    -0.25200
C1446       C  0.56189653  0.83130649  0.61512529    -0.24500
C1447       C  0.55074518  0.80959354  0.58874792     0.40100
C1448       C  0.52653374  0.80853514  0.58726269    -0.26900
O1449       O  0.51136166  0.86960692  0.66477217    -0.58800
H1450       H  0.55647519  0.86789337  0.66145339     0.15800
O1451       O  0.56325485  0.78958755  0.56354866    -0.60300
H1452       H  0.51816544  0.79210598  0.56619539     0.14200
H1453       H  0.43496932  0.78945670  0.67674884     0.46100
H1454       H  0.50862008  0.86079906  0.69696977     0.41400
H1455       H  0.56567212  0.79779854  0.53079615     0.44900
H1456       H  0.48583588  0.88922379  0.58684184     0.36400
C1457       C  0.21583367  0.75353012  0.50080351    -0.27900
C1458       C  0.23768595  0.74874748  0.47946029     0.01700
C1459       C  0.23927458  0.73152536  0.43757535     0.29800
C1460       C  0.21947816  0.71828783  0.41946211    -0.19700
C1461       C  0.19778618  0.72272828  0.44149508    -0.29100
C1462       C  0.19594112  0.74109221  0.48166708     0.43900
C1463       C  0.25858485  0.76165263  0.50149357     0.05000
O1464       O  0.26010647  0.72708535  0.41452270    -0.57600
H1465       H  0.22113529  0.70404958  0.38865030     0.18000
O1466       O  0.17501937  0.74571373  0.50430376    -0.64300
H1467       H  0.21420155  0.76619168  0.53352840     0.16400
C1468       C  0.25847724  0.79029948  0.51539950     0.28700
C1469       C  0.27828409  0.80221801  0.53558136    -0.25200
C1470       C  0.29878368  0.78630505  0.54151938    -0.24500
C1471       C  0.29886624  0.75751074  0.52824207     0.40100
C1472       C  0.27877515  0.74533510  0.50895868    -0.26900
O1473       O  0.23961864  0.80735723  0.50631859    -0.58800
H1474       H  0.27772596  0.82452684  0.54465448     0.15800
O1475       O  0.31856392  0.74128952  0.53239518    -0.60300
H1476       H  0.27905629  0.72309160  0.49945449     0.14200
H1477       H  0.17439345  0.73164319  0.53098701     0.46100
H1478       H  0.23323620  0.81248401  0.53878174     0.41400
H1479       H  0.31814742  0.73364699  0.56595054     0.44900
H1480       H  0.26203569  0.74356024  0.39262547     0.36400
C1481       C  0.22235888  0.87578777  0.73992240    -0.27900
C1482       C  0.24291190  0.88281303  0.76430166     0.01700
C1483       C  0.24193407  0.88879441  0.81454768     0.29800
C1484       C  0.22082378  0.88668934  0.83978434    -0.19700
C1485       C  0.20036805  0.87853294  0.81582704    -0.29100
C1486       C  0.20130417  0.87347158  0.76509104     0.43900
C1487       C  0.26526226  0.88256737  0.73699476     0.05000
O1488       O  0.26141256  0.89747900  0.83893348    -0.57600
H1489       H  0.22064235  0.89094413  0.87854281     0.18000
O1490       O  0.18187018  0.86584247  0.73960485    -0.64300
H1491       H  0.22275542  0.87114938  0.70128403     0.16400
C1492       C  0.28410658  0.86577827  0.75257541     0.28700
C1493       C  0.30439633  0.86425191  0.72468705    -0.25200
C1494       C  0.30619881  0.87844748  0.67990945    -0.24500
C1495       C  0.28739213  0.89536438  0.66434285     0.40100
C1496       C  0.26724546  0.89747666  0.69297798    -0.26900
O1497       O  0.28250174  0.84959708  0.79378691    -0.58800
H1498       H  0.31836042  0.85064687  0.73714521     0.15800
O1499       O  0.28851112  0.91002665  0.62141805    -0.60300
H1500       H  0.25291989  0.91043027  0.68030996     0.14200
H1501       H  0.18219235  0.84488601  0.73878199     0.46100
H1502       H  0.27546871  0.83152761  0.78296701     0.41400
H1503       H  0.28053822  0.89792470  0.59717290     0.44900
H1504       H  0.26470059  0.88257529  0.86335835     0.36400
loop_ 
_geom_bond_atom_site_label_1 
_geom_bond_atom_site_label_2 
_geom_bond_distance 
_geom_bond_site_symmetry_2 
_ccdc_geom_bond_type 
O1           C16   1.266       .  A
O1           Al9   1.927       .  S
C2           O12   1.268       .  A
C2            O3   1.259       .  A
C2         C1494   1.487       .  S
O3           Al5   1.884       .  S
O4            C6   1.270       .  A
O4           Al5   1.950       .  S
Al5          O13   1.960       .  S
Al5          O15   1.881       .  S
Al5          O14   1.772       .  S
C6           O19   1.257       .  A
C6         C1389   1.477       .  S
O7           C17   1.268       .  A
O7           Al9   1.947       .  S
O8           C21   1.269       .  A
O8          Al18   1.946       .  S
Al9          O22   1.880       .  S
Al9          O19   1.868       .  S
Al9          O14   1.772       .  S
O10          C17   1.256       .  A
O10         Al18   1.861       .  S
O11          C20   1.256       .  A
O11         Al18   1.865       .  S
O12         Al18   1.943       .  S
O13          C20   1.272       .  A
O14         Al18   1.767       .  S
O15          C16   1.260       .  A
C16        C1437   1.467       .  S
C17        C1470   1.478       .  S
C20        C1365   1.490       .  S
C21          O22   1.257       .  A
C21        C1413   1.480       .  S
O23          C38   1.260       .  A
O23         Al31   1.897       .  S
C24          O34   1.258       .  A
C24          O25   1.268       .  A
C24        C1302   1.492       .  S
O25         Al27   1.948       .  S
O26          C28   1.257       .  A
O26         Al27   1.870       .  S
Al27         O35   1.885       .  S
Al27         O37   1.938       .  S
Al27         O36   1.774       .  S
C28          O41   1.265       .  A
C28        C1278   1.466       .  S
O29          C39   1.260       .  A
O29         Al31   1.890       .  S
O30          C43   1.263       .  A
O30         Al40   1.891       .  S
Al31         O44   1.914       .  S
Al31         O41   1.926       .  S
Al31         O36   1.776       .  S
O32          C39   1.269       .  A
O32         Al40   1.943       .  S
O33          C42   1.271       .  A
O33         Al40   1.957       .  S
O34         Al40   1.882       .  S
O35          C42   1.258       .  A
O36         Al40   1.777       .  S
O37          C38   1.267       .  A
C38        C1341   1.486       .  S
C39        C1317   1.494       .  S
C42        C1254   1.478       .  S
C43          O44   1.264       .  A
C43        C1446   1.478       .  S
O45          C60   1.271       .  A
O45         Al53   1.945       .  S
C46          O56   1.268       .  A
C46          O47   1.260       .  A
C46        C1197   1.485       .  S
O47         Al49   1.888       .  S
O48          C50   1.269       .  A
O48         Al49   1.951       .  S
Al49         O57   1.961       .  S
Al49         O59   1.875       .  S
Al49         O58   1.777       .  S
C50          O63   1.256       .  A
C50        C1350   1.495       .  S
O51          C61   1.272       .  A
O51         Al53   1.953       .  S
O52          C65   1.266   1_554  A
O52         Al62   1.949       .  S
Al53         O66   1.886       .  S
Al53         O63   1.878       .  S
Al53         O58   1.773       .  S
O54          C61   1.255       .  A
O54         Al62   1.858       .  S
O55          C64   1.262       .  A
O55         Al62   1.885       .  S
O56         Al62   1.940       .  S
O57          C64   1.273       .  A
O58         Al62   1.774       .  S
O59          C60   1.260       .  A
C60        C1221   1.487       .  S
C61        C1182   1.479       .  S
C64        C1158   1.492       .  S
C65          O66   1.256   1_556  A
C65        C1326   1.491       .  S
O67          C82   1.260   1_554  A
O67         Al75   1.883       .  S
C68          O78   1.262       .  A
C68          O69   1.266       .  A
C68        C1125   1.496       .  S
O69         Al71   1.931       .  S
O70          C72   1.255       .  A
O70         Al71   1.881       .  S
Al71         O79   1.874       .  S
Al71         O81   1.941   1_554  S
Al71         O80   1.773       .  S
C72          O85   1.263       .  A
C72        C1110   1.458       .  S
O73          C83   1.262       .  A
O73         Al75   1.881       .  S
O74          C87   1.264       .  A
O74         Al84   1.911       .  S
Al75         O88   1.916       .  S
Al75         O85   1.928       .  S
Al75         O80   1.774       .  S
O76          C83   1.270       .  A
O76         Al84   1.944       .  S
O77          C86   1.269       .  A
O77         Al84   1.944       .  S
O78         Al84   1.904       .  S
O79          C86   1.258       .  A
O80         Al84   1.773       .  S
O81          C82   1.269       .  A
C82        C1398   1.483       .  S
C83        C1422   1.487       .  S
C86        C1077   1.488       .  S
C87          O88   1.263       .  A
C87        C1230   1.477       .  S
O89         C104   1.266       .  A
O89         Al97   1.919       .  S
C90         O100   1.266       .  A
C90          O91   1.259       .  A
C90        C1485   1.490       .  S
O91         Al93   1.890       .  S
O92          C94   1.266       .  A
O92         Al93   1.942       .  S
Al93        O101   1.959       .  S
Al93        O103   1.883       .  S
Al93        O102   1.781       .  S
C94         O107   1.256       .  A
C94        C1005   1.484       .  S
O95         C105   1.269       .  A
O95         Al97   1.944       .  S
O96         C109   1.265   1_556  A
O96        Al106   1.934       .  S
Al97        O110   1.876       .  S
Al97        O107   1.872       .  S
Al97        O102   1.777       .  S
O98         C105   1.255       .  A
O98        Al106   1.856       .  S
O99         C108   1.259       .  A
O99        Al106   1.877       .  S
O100       Al106   1.934       .  S
O101        C108   1.273       .  A
O102       Al106   1.776       .  S
O103        C104   1.261       .  A
C104       C1053   1.469       .  S
C105       C1101   1.476       .  S
C108        C981   1.493       .  S
C109        O110   1.254   1_554  A
C109       C1029   1.485       .  S
O111        C126   1.258   1_556  A
O111       Al119   1.887       .  S
C112        O122   1.260       .  A
C112        O113   1.265       .  A
C112       C1293   1.497       .  S
O113       Al115   1.933       .  S
O114        C116   1.261       .  A
O114       Al115   1.880       .  S
Al115       O123   1.875       .  S
Al115       O125   1.940   1_556  S
Al115       O124   1.776       .  S
C116        O129   1.267       .  A
C116       C1173   1.470       .  S
O117        C127   1.255       .  A
O117       Al119   1.864       .  S
O118        C131   1.260       .  A
O118       Al128   1.891       .  S
Al119       O132   1.914       .  S
Al119       O129   1.930       .  S
Al119       O124   1.774       .  S
O120        C127   1.271       .  A
O120       Al128   1.953       .  S
O121        C130   1.274       .  A
O121       Al128   1.956       .  S
O122       Al128   1.905       .  S
O123        C130   1.260       .  A
O124       Al128   1.778       .  S
O125        C126   1.265       .  A
C126        C957   1.487       .  S
C127        C942   1.487       .  S
C130        C909   1.493       .  S
C131        O132   1.263       .  A
C131       C1062   1.484       .  S
O133        C148   1.263       .  A
O133       Al141   1.897       .  S
C134        O144   1.260       .  A
C134        O135   1.263       .  A
C134       C1206   1.487       .  S
O135       Al137   1.920       .  S
O136        C138   1.261       .  A
O136       Al137   1.920       .  S
Al137       O145   1.918       .  S
Al137       O147   1.918       .  S
Al137       O146   1.798       .  S
C138        O151   1.256       .  A
C138        C966   1.492       .  S
O139        C149   1.265       .  A
O139       Al141   1.923       .  S
O140        C153   1.263       .  A
O140       Al150   1.917       .  S
Al141       O154   1.884       .  S
Al141       O151   1.888       .  S
Al141       O146   1.788       .  S
O142        C149   1.257       .  A
O142       Al150   1.875       .  S
O143        C152   1.256       .  A
O143       Al150   1.885       .  S
O144       Al150   1.891       .  S
O145        C152   1.261       .  A
O146       Al150   1.791       .  S
O147        C148   1.265       .  A
C148        C885   1.477       .  S
C149       C1269   1.465       .  S
C152        C870   1.484       .  S
C153        O154   1.256       .  A
C153        C933   1.474       .  S
O155        C170   1.256       .  A
O155       Al163   1.873       .  S
C156        O166   1.259       .  A
C156        O157   1.268       .  A
C156       C1134   1.495       .  S
O157       Al159   1.946       .  S
O158        C160   1.257       .  A
O158       Al159   1.876       .  S
Al159       O167   1.872       .  S
Al159       O169   1.961       .  S
Al159       O168   1.774       .  S
C160        O173   1.267       .  A
C160       C1461   1.467       .  S
O161        C171   1.256       .  A
O161       Al163   1.858       .  S
O162        C175   1.261       .  A
O162       Al172   1.896       .  S
Al163       O176   1.920       .  S
Al163       O173   1.937       .  S
Al163       O168   1.767       .  S
O164        C171   1.270       .  A
O164       Al172   1.952       .  S
O165        C174   1.273       .  A
O165       Al172   1.953       .  S
O166       Al172   1.893       .  S
O167        C174   1.259       .  A
O168       Al172   1.775       .  S
O169        C170   1.270       .  A
C170       C1014   1.487       .  S
C171       C1038   1.484       .  S
C174        C837   1.490       .  S
C175        O176   1.264       .  A
C175        C894   1.484       .  S
O177        C192   1.264       .  A
O177       Al185   1.901       .  S
C178        O188   1.258       .  A
C178        O179   1.259       .  A
C178        C741   1.495       .  S
O179       Al181   1.907       .  S
O180        C182   1.261       .  A
O180       Al181   1.930       .  S
Al181       O189   1.927       .  S
Al181       O191   1.907       .  S
Al181       O190   1.805       .  S
C182        O195   1.252       .  A
C182        C774   1.493       .  S
O183        C193   1.264       .  A
O183       Al185   1.917       .  S
O184        C197   1.260       .  A
O184       Al194   1.918   1_554  S
Al185       O198   1.871       .  S
Al185       O195   1.875       .  S
Al185       O190   1.801       .  S
O186        C193   1.257       .  A
O186       Al194   1.863       .  S
O187        C196   1.256       .  A
O187       Al194   1.879       .  S
O188       Al194   1.898       .  S
O189        C196   1.264       .  A
O190       Al194   1.800       .  S
O191        C192   1.264       .  A
C192        C813   1.489       .  S
C193        C717   1.464       .  S
C196       C1149   1.496       .  S
C197        O198   1.251   1_554  A
C197        C798   1.476       .  S
O199        C214   1.259   1_556  A
O199       Al207   1.890       .  S
C200        O210   1.261       .  A
C200        O201   1.262       .  A
C200        C693   1.488       .  S
O201       Al203   1.920       .  S
O202        C204   1.258       .  A
O202       Al203   1.880       .  S
Al203       O211   1.874       .  S
Al203       O213   1.940   1_556  S
Al203       O212   1.774       .  S
C204        O217   1.265       .  A
C204        C669   1.453       .  S
O205        C215   1.256       .  A
O205       Al207   1.870       .  S
O206        C219   1.261       .  A
O206       Al216   1.898       .  S
Al207       O220   1.915       .  S
Al207       O217   1.927       .  S
Al207       O212   1.773       .  S
O208        C215   1.271       .  A
O208       Al216   1.952       .  S
O209        C218   1.273       .  A
O209       Al216   1.951       .  S
O210       Al216   1.902       .  S
O211        C218   1.261       .  A
O212       Al216   1.774       .  S
O213        C214   1.266       .  A
C214        C654   1.484       .  S
C215        C630   1.492       .  S
C218       C1086   1.487       .  S
C219        O220   1.263       .  A
C219        C822   1.485       .  S
O221        C236   1.267       .  A
O221       Al229   1.925       .  S
C222        O232   1.265       .  A
C222        O223   1.259       .  A
C222        C582   1.494       .  S
O223       Al225   1.897       .  S
O224        C226   1.269       .  A
O224       Al225   1.945       .  S
Al225       O233   1.968       .  S
Al225       O235   1.893       .  S
Al225       O234   1.780       .  S
C226        O239   1.256       .  A
C226        C645   1.490       .  S
O227        C237   1.270       .  A
O227       Al229   1.950       .  S
O228        C241   1.265       .  A
O228       Al238   1.935       .  S
Al229       O242   1.897       .  S
Al229       O239   1.871       .  S
Al229       O234   1.775       .  S
O230        C237   1.255       .  A
O230       Al238   1.859       .  S
O231        C240   1.258       .  A
O231       Al238   1.863       .  S
O232       Al238   1.935       .  S
O233        C240   1.275       .  A
O234       Al238   1.771       .  S
O235        C236   1.262       .  A
C236        C558   1.481       .  S
C237        C597   1.471       .  S
C240       C1374   1.489       .  S
C241        O242   1.259       .  A
C241        C621   1.487       .  S
O243        C258   1.258       .  A
O243       Al251   1.888       .  S
C244        O254   1.259       .  A
C244        O245   1.269       .  A
C244        C510   1.493       .  S
O245       Al247   1.948       .  S
O246        C248   1.257       .  A
O246       Al247   1.855       .  S
Al247       O255   1.883       .  S
Al247       O257   1.942       .  S
Al247       O256   1.773       .  S
C248        O261   1.272       .  A
C248        C525   1.478       .  S
O249        C259   1.257       .  A
O249       Al251   1.877       .  S
O250        C263   1.259       .  A
O250       Al260   1.875       .  S
Al251       O264   1.947       .  S
Al251       O261   1.956       .  S
Al251       O256   1.774       .  S
O252        C259   1.267       .  A
O252       Al260   1.944       .  S
O253        C262   1.272       .  A
O253       Al260   1.958       .  S
O254       Al260   1.884       .  S
O255        C262   1.261       .  A
O256       Al260   1.775       .  S
O257        C258   1.266       .  A
C258        C765   1.490       .  S
C259        C789   1.491       .  S
C262       C1245   1.485       .  S
C263        O264   1.271       .  A
C263        C549   1.487       .  S
O265        C280   1.263       .  A
O265       Al273   1.897       .  S
C266        O276   1.260       .  A
C266        O267   1.261       .  A
C266        C750   1.493       .  S
O267       Al269   1.913       .  S
O268        C270   1.264       .  A
O268       Al269   1.936       .  S
Al269       O277   1.934       .  S
Al269       O279   1.911       .  S
Al269       O278   1.797       .  S
C270        O283   1.255       .  A
C270        C462   1.493       .  S
O271        C281   1.264       .  A
O271       Al273   1.919       .  S
O272        C285   1.263       .  A
O272       Al282   1.921       .  S
Al273       O286   1.885       .  S
Al273       O283   1.887       .  S
Al273       O278   1.790       .  S
O274        C281   1.255       .  A
O274       Al282   1.863       .  S
O275        C284   1.256       .  A
O275       Al282   1.878       .  S
O276       Al282   1.897       .  S
O277        C284   1.265       .  A
O278       Al282   1.790       .  S
O279        C280   1.264       .  A
C280        C477   1.478       .  S
C281        C534   1.456       .  S
C284        C861   1.495       .  S
C285        O286   1.255       .  A
C285        C429   1.477       .  S
O287        C302   1.259       .  A
O287       Al295   1.887       .  S
C288        O298   1.257       .  A
C288        O289   1.266       .  A
C288        C702   1.483       .  S
O289       Al291   1.939       .  S
O290        C292   1.256       .  A
O290       Al291   1.866       .  S
Al291       O299   1.866       .  S
Al291       O301   1.946       .  S
Al291       O300   1.775       .  S
C292        O305   1.269       .  A
C292        C606   1.471       .  S
O293        C303   1.259       .  A
O293       Al295   1.882       .  S
O294        C307   1.259       .  A
O294       Al304   1.876       .  S
Al295       O308   1.929       .  S
Al295       O305   1.939       .  S
Al295       O300   1.772       .  S
O296        C303   1.269       .  A
O296       Al304   1.947       .  S
O297        C306   1.272       .  A
O297       Al304   1.957       .  S
O298       Al304   1.878       .  S
O299        C306   1.258       .  A
O300       Al304   1.776       .  S
O301        C302   1.267       .  A
C302        C381   1.491       .  S
C303        C405   1.489       .  S
C306        C846   1.487       .  S
C307        O308   1.267       .  A
C307        C486   1.483       .  S
O309        C324   1.265       .  A
O309       Al317   1.917       .  S
C310        O320   1.267       .  A
C310        O311   1.257       .  A
C310        C573   1.491       .  S
O311       Al313   1.885       .  S
O312        C314   1.270       .  A
O312       Al313   1.953       .  S
Al313       O321   1.970       .  S
Al313       O323   1.877       .  S
Al313       O322   1.777       .  S
C314        O327   1.256       .  A
C314        C390   1.492       .  S
O315        C325   1.269       .  A
O315       Al317   1.940       .  S
O316        C329   1.268       .  A
O316       Al326   1.952   1_556  S
Al317       O330   1.884       .  S
Al317       O327   1.871       .  S
Al317       O322   1.774       .  S
O318        C325   1.255       .  A
O318       Al326   1.851       .  S
O319        C328   1.259       .  A
O319       Al326   1.870       .  S
O320       Al326   1.948       .  S
O321        C328   1.276       .  A
O322       Al326   1.773       .  S
O323        C324   1.259       .  A
C324        C357   1.470       .  S
C325        C678   1.469       .  S
C328        C990   1.495       .  S
C329        O330   1.256   1_556  A
C329        C414   1.494       .  S
O331        C346   1.259   1_554  A
O331       Al339   1.884       .  S
C332        O342   1.256       .  A
C332        O333   1.269       .  A
C332        C501   1.489       .  S
O333       Al335   1.950       .  S
O334        C336   1.257       .  A
O334       Al335   1.876       .  S
Al335       O343   1.873       .  S
Al335       O345   1.966   1_554  S
Al335       O344   1.771       .  S
C336        O349   1.266       .  A
C336        C726   1.466       .  S
O337        C347   1.259       .  A
O337       Al339   1.873       .  S
O338        C351   1.257       .  A
O338       Al348   1.880       .  S
Al339       O352   1.924       .  S
Al339       O349   1.936       .  S
Al339       O344   1.773       .  S
O340        C347   1.272       .  A
O340       Al348   1.954       .  S
O341        C350   1.272       .  A
O341       Al348   1.958       .  S
O342       Al348   1.877       .  S
O343        C350   1.260       .  A
O344       Al348   1.774       .  S
O345        C346   1.273       .  A
C346        C453   1.494       .  S
C347        C438   1.491       .  S
C350        C918   1.490       .  S
C351        O352   1.265       .  A
C351        C366   1.479       .  S
C353        C354   1.404       .  A
C353        C358   1.396       .  A
C353        H363   1.083       .  S
C354        C359   1.479   1_455  S
C354        C355   1.409       .  A
C355        C356   1.397       .  A
C355        O360   1.372       .  S
C356        C357   1.403       .  A
C356        H361   1.084       .  S
C357        C358   1.407       .  A
C358        O362   1.371       .  S
C359        C364   1.408       .  A
C359        C368   1.402       .  A
O360        H376   0.992       .  S
O362        H373   0.991       .  S
C364        C365   1.398       .  A
C364        O369   1.373       .  S
C365        C366   1.405       .  A
C365        H370   1.083       .  S
C366        C367   1.413       .  A
C367        C368   1.397       .  A
C367        O371   1.372       .  S
C368        H372   1.084       .  S
O369        H374   0.992       .  S
O371        H375   0.992       .  S
C377        C378   1.405       .  A
C377        C382   1.405       .  A
C377        H387   1.083       .  S
C378        C383   1.489       .  S
C378        C379   1.407       .  A
C379        C380   1.399       .  A
C379        O384   1.371       .  S
C380        C381   1.408       .  A
C380        H385   1.083       .  S
C381        C382   1.414       .  A
C382        O386   1.372       .  S
C383        C388   1.405       .  A
C383        C392   1.407       .  A
O384        H400   0.991       .  S
O386        H397   0.992       .  S
C388        C389   1.401       .  A
C388        O393   1.372       .  S
C389        C390   1.411       .  A
C389        H394   1.083       .  S
C390        C391   1.410       .  A
C391        C392   1.405       .  A
C391        O395   1.371       .  S
C392        H396   1.083       .  S
O393        H398   0.992       .  S
O395        H399   0.992       .  S
C401        C402   1.406       .  A
C401        C406   1.406       .  A
C401        H411   1.084       .  S
C402        C407   1.488       .  S
C402        C403   1.405       .  A
C403        C404   1.402       .  A
C403        O408   1.372       .  S
C404        C405   1.409       .  A
C404        H409   1.083       .  S
C405        C406   1.411       .  A
C406        O410   1.371       .  S
C407        C412   1.409       .  A
C407        C416   1.400       .  A
O408        H424   0.991       .  S
O410        H421   0.991       .  S
C412        C413   1.405       .  A
C412        O417   1.371       .  S
C413        C414   1.408       .  A
C413        H418   1.083       .  S
C414        C415   1.417       .  A
C415        C416   1.402       .  A
C415        O419   1.372       .  S
C416        H420   1.084       .  S
O417        H422   0.992       .  S
O419        H423   0.991       .  S
C425        C426   1.404       .  A
C425        C430   1.400       .  A
C425        H435   1.084       .  S
C426        C431   1.489       .  S
C426        C427   1.412       .  A
C427        C428   1.406       .  A
C427        O432   1.372       .  S
C428        C429   1.404       .  A
C428        H433   1.084       .  S
C429        C430   1.409       .  A
C430        O434   1.372       .  S
C431        C436   1.406       .  A
C431        C440   1.407       .  A
O432        H448   0.992       .  S
O434        H445   0.991       .  S
C436        C437   1.399       .  A
C436        O441   1.372       .  S
C437        C438   1.411       .  A
C437        H442   1.083       .  S
C438        C439   1.411       .  A
C439        C440   1.404       .  A
C439        O443   1.371       .  S
C440        H444   1.084       .  S
O441        H446   0.991       .  S
O443        H447   0.992       .  S
C449        C450   1.401       .  A
C449        C454   1.401       .  A
C449        H459   1.084       .  S
C450        C455   1.487       .  S
C450        C451   1.408       .  A
C451        C452   1.407       .  A
C451        O456   1.371       .  S
C452        C453   1.408       .  A
C452        H457   1.083       .  S
C453        C454   1.417       .  A
C454        O458   1.372       .  S
C455        C460   1.411       .  A
C455        C464   1.398       .  A
O456        H472   0.991       .  S
O458        H469   0.990       .  S
C460        C461   1.409       .  A
C460        O465   1.371       .  S
C461        C462   1.407       .  A
C461        H466   1.083       .  S
C462        C463   1.418       .  A
C463        C464   1.399       .  A
C463        O467   1.372       .  S
C464        H468   1.084       .  S
O465        H470   0.991       .  S
O467        H471   0.991       .  S
C473        C474   1.402       .  A
C473        C478   1.398       .  A
C473        H483   1.083       .  S
C474        C479   1.479   1_655  S
C474        C475   1.408       .  A
C475        C476   1.399       .  A
C475        O480   1.372       .  S
C476        C477   1.404       .  A
C476        H481   1.084       .  S
C477        C478   1.413       .  A
C478        O482   1.372       .  S
C479        C484   1.406       .  A
C479        C488   1.403       .  A
O480        H496   0.991       .  S
O482        H493   0.992       .  S
C484        C485   1.398       .  A
C484        O489   1.372       .  S
C485        C486   1.408       .  A
C485        H490   1.083       .  S
C486        C487   1.412       .  A
C487        C488   1.399       .  A
C487        O491   1.371       .  S
C488        H492   1.084       .  S
O489        H494   0.992       .  S
O491        H495   0.990       .  S
C497        C498   1.408       .  A
C497        C502   1.405       .  A
C497        H507   1.083       .  S
C498        C503   1.492       .  S
C498        C499   1.408       .  A
C499        C500   1.400       .  A
C499        O504   1.372       .  S
C500        C501   1.409       .  A
C500        H505   1.084       .  S
C501        C502   1.410       .  A
C502        O506   1.371       .  S
C503        C508   1.407       .  A
C503        C512   1.407       .  A
O504        H520   0.992       .  S
O506        H517   0.993       .  S
C508        C509   1.400       .  A
C508        O513   1.372       .  S
C509        C510   1.408       .  A
C509        H514   1.083       .  S
C510        C511   1.414       .  A
C511        C512   1.407       .  A
C511        O515   1.371       .  S
C512        H516   1.083       .  S
O513        H518   0.992       .  S
O515        H519   0.992       .  S
C521        C522   1.404       .  A
C521        C526   1.403       .  A
C521        H531   1.084       .  S
C522        C527   1.473       .  S
C522        C523   1.402       .  A
C523        C524   1.391       .  A
C523        O528   1.373       .  S
C524        C525   1.407       .  A
C524        H529   1.084       .  S
C525        C526   1.411       .  A
C526        O530   1.372       .  S
C527        C532   1.405       .  A
C527        C536   1.406       .  A
O528        H544   0.992       .  S
O530        H541   0.990       .  S
C532        C533   1.389       .  A
C532        O537   1.372       .  S
C533        C534   1.401       .  A
C533        H538   1.085       .  S
C534        C535   1.404       .  A
C535        C536   1.403       .  A
C535        O539   1.372       .  S
C536        H540   1.083       .  S
O537        H542   0.991       .  S
O539        H543   0.991       .  S
C545        C546   1.402       .  A
C545        C550   1.400       .  A
C545        H555   1.083       .  S
C546        C551   1.489       .  S
C546        C547   1.411       .  A
C547        C548   1.402       .  A
C547        O552   1.371       .  S
C548        C549   1.405       .  A
C548        H553   1.083       .  S
C549        C550   1.415       .  A
C550        O554   1.372       .  S
C551        C556   1.411       .  A
C551        C560   1.404       .  A
O552        H568   0.992       .  S
O554        H565   0.992       .  S
C556        C557   1.403       .  A
C556        O561   1.373       .  S
C557        C558   1.405       .  A
C557        H562   1.084       .  S
C558        C559   1.409       .  A
C559        C560   1.400       .  A
C559        O563   1.372       .  S
C560        H564   1.083       .  S
O561        H566   0.992       .  S
O563        H567   0.991       .  S
C569        C570   1.406       .  A
C569        C574   1.406       .  A
C569        H579   1.083       .  S
C570        C575   1.490       .  S
C570        C571   1.407       .  A
C571        C572   1.402       .  A
C571        O576   1.372       .  S
C572        C573   1.409       .  A
C572        H577   1.084       .  S
C573        C574   1.411       .  A
C574        O578   1.371       .  S
C575        C580   1.410       .  A
C575        C584   1.402       .  A
O576        H592   0.992       .  S
O578        H589   0.992       .  S
C580        C581   1.405       .  A
C580        O585   1.371       .  S
C581        C582   1.409       .  A
C581        H586   1.083       .  S
C582        C583   1.416       .  A
C583        C584   1.402       .  A
C583        O587   1.371       .  S
C584        H588   1.084       .  S
O585        H590   0.991       .  S
O587        H591   0.992       .  S
C593        C594   1.397       .  A
C593        C598   1.388       .  A
C593        H603   1.084       .  S
C594        C599   1.476       .  S
C594        C595   1.411       .  A
C595        C596   1.402       .  A
C595        O600   1.371       .  S
C596        C597   1.403       .  A
C596        H601   1.084       .  S
C597        C598   1.413       .  A
C598        O602   1.373       .  S
C599        C604   1.410       .  A
C599        C608   1.401       .  A
O600        H616   0.993       .  S
O602        H613   0.991       .  S
C604        C605   1.396       .  A
C604        O609   1.373       .  S
C605        C606   1.401       .  A
C605        H610   1.084       .  S
C606        C607   1.413       .  A
C607        C608   1.396       .  A
C607        O611   1.372       .  S
C608        H612   1.084       .  S
O609        H614   0.994       .  S
O611        H615   0.991       .  S
C617        C618   1.403       .  A
C617        C622   1.401       .  A
C617        H627   1.084       .  S
C618        C623   1.486       .  S
C618        C619   1.408       .  A
C619        C620   1.404       .  A
C619        O624   1.372       .  S
C620        C621   1.407       .  A
C620        H625   1.084       .  S
C621        C622   1.414       .  A
C622        O626   1.372       .  S
C623        C628   1.410       .  A
C623        C632   1.399       .  A
O624        H640   0.991       .  S
O626        H637   0.991       .  S
C628        C629   1.404       .  A
C628        O633   1.371       .  S
C629        C630   1.406       .  A
C629        H634   1.083       .  S
C630        C631   1.419       .  A
C631        C632   1.400       .  A
C631        O635   1.372       .  S
C632        H636   1.084       .  S
O633        H638   0.991       .  S
O635        H639   0.992       .  S
C641        C642   1.399       .  A
C641        C646   1.397       .  A
C641        H651   1.084       .  S
C642        C647   1.484       .  S
C642        C643   1.410       .  A
C643        C644   1.405       .  A
C643        O648   1.371       .  S
C644        C645   1.407       .  A
C644        H649   1.083       .  S
C645        C646   1.418       .  A
C646        O650   1.372       .  S
C647        C652   1.409       .  A
C647        C656   1.403       .  A
O648        H664   0.992       .  S
O650        H661   0.992       .  S
C652        C653   1.400       .  A
C652        O657   1.372       .  S
C653        C654   1.406       .  A
C653        H658   1.083       .  S
C654        C655   1.413       .  A
C655        C656   1.401       .  A
C655        O659   1.371       .  S
C656        H660   1.084       .  S
O657        H662   0.993       .  S
O659        H663   0.991       .  S
C665        C666   1.407       .  A
C665        C670   1.397       .  A
C665        H675   1.083       .  S
C666        C671   1.477   1_556  S
C666        C667   1.411   1_556  A
C667        C668   1.390       .  A
C667        O672   1.372       .  S
C668        C669   1.397   1_554  A
C668        H673   1.083       .  S
C669        C670   1.403       .  A
C670        O674   1.372       .  S
C671        C676   1.411       .  A
C671        C680   1.400       .  A
O672        H688   0.992       .  S
O674        H685   0.992       .  S
C676        C677   1.400       .  A
C676        O681   1.373   1_554  S
C677        C678   1.403       .  A
C677        H682   1.084       .  S
C678        C679   1.411       .  A
C679        C680   1.389       .  A
C679        O683   1.374       .  S
C680        H684   1.083       .  S
O681        H686   0.992       .  S
O683        H687   0.992       .  S
C689        C690   1.402       .  A
C689        C694   1.400       .  A
C689        H699   1.084       .  S
C690        C695   1.482       .  S
C690        C691   1.407       .  A
C691        C692   1.400       .  A
C691        O696   1.372       .  S
C692        C693   1.407       .  A
C692        H697   1.083       .  S
C693        C694   1.415       .  A
C694        O698   1.372       .  S
C695        C700   1.406       .  A
C695        C704   1.404       .  A
O696        H712   0.991       .  S
O698        H709   0.992       .  S
C700        C701   1.397       .  A
C700        O705   1.372       .  S
C701        C702   1.407       .  A
C701        H706   1.084       .  S
C702        C703   1.411       .  A
C703        C704   1.403       .  A
C703        O707   1.371       .  S
C704        H708   1.083       .  S
O705        H710   0.993       .  S
O707        H711   0.992       .  S
C713        C714   1.411       .  A
C713        C718   1.402       .  A
C713        H723   1.082       .  S
C714        C719   1.488       .  S
C714        C715   1.412       .  A
C715        C716   1.390       .  A
C715        O720   1.372       .  S
C716        C717   1.401       .  A
C716        H721   1.084       .  S
C717        C718   1.403       .  A
C718        O722   1.371       .  S
C719        C724   1.413   1_556  A
C719        C728   1.405       .  A
O720        H736   0.992       .  S
O722        H733   0.992       .  S
C724        C725   1.399       .  A
C724        O729   1.373       .  S
C725        C726   1.400       .  A
C725        H730   1.084       .  S
C726        C727   1.404   1_554  A
C727        C728   1.399       .  A
C727        O731   1.375       .  S
C728        H732   1.082       .  S
O729        H734   0.993       .  S
O731        H735   0.989       .  S
C737        C738   1.407       .  A
C737        C742   1.405       .  A
C737        H747   1.083       .  S
C738        C743   1.499       .  S
C738        C739   1.413       .  A
C739        C740   1.402       .  A
C739        O744   1.372       .  S
C740        C741   1.407       .  A
C740        H745   1.083       .  S
C741        C742   1.415       .  A
C742        O746   1.371       .  S
C743        C748   1.413       .  A
C743        C752   1.406       .  A
O744        H760   0.991       .  S
O746        H757   0.989       .  S
C748        C749   1.402       .  A
C748        O753   1.371       .  S
C749        C750   1.407       .  A
C749        H754   1.083       .  S
C750        C751   1.414       .  A
C751        C752   1.403       .  A
C751        O755   1.372       .  S
C752        H756   1.083       .  S
O753        H758   0.992       .  S
O755        H759   0.990       .  S
C761        C762   1.402       .  A
C761        C766   1.403       .  A
C761        H771   1.084       .  S
C762        C767   1.482       .  S
C762        C763   1.405       .  A
C763        C764   1.402       .  A
C763        O768   1.371       .  S
C764        C765   1.409       .  A
C764        H769   1.083       .  S
C765        C766   1.415       .  A
C766        O770   1.371       .  S
C767        C772   1.401       .  A
C767        C776   1.406       .  A
O768        H784   0.992       .  S
O770        H781   0.991       .  S
C772        C773   1.397       .  A
C772        O777   1.372       .  S
C773        C774   1.412       .  A
C773        H778   1.083       .  S
C774        C775   1.412       .  A
C775        C776   1.409       .  A
C775        O779   1.371       .  S
C776        H780   1.083       .  S
O777        H782   0.992       .  S
O779        H783   0.992       .  S
C785        C786   1.408       .  A
C785        C790   1.404       .  A
C785        H795   1.084       .  S
C786        C791   1.492       .  S
C786        C787   1.407       .  A
C787        C788   1.402       .  A
C787        O792   1.373       .  S
C788        C789   1.410       .  A
C788        H793   1.083       .  S
C789        C790   1.411       .  A
C790        O794   1.371       .  S
C791        C796   1.413       .  A
C791        C800   1.405       .  A
O792        H808   0.991       .  S
O794        H805   0.992       .  S
C796        C797   1.403       .  A
C796        O801   1.371       .  S
C797        C798   1.402       .  A
C797        H802   1.084       .  S
C798        C799   1.410       .  A
C799        C800   1.401       .  A
C799        O803   1.373       .  S
C800        H804   1.084       .  S
O801        H806   0.991       .  S
O803        H807   0.992       .  S
C809        C810   1.403       .  A
C809        C814   1.400       .  A
C809        H819   1.083       .  S
C810        C815   1.490       .  S
C810        C811   1.411       .  A
C811        C812   1.401       .  A
C811        O816   1.371       .  S
C812        C813   1.406       .  A
C812        H817   1.083       .  S
C813        C814   1.415       .  A
C814        O818   1.372       .  S
C815        C820   1.411       .  A
C815        C824   1.404       .  A
O816        H832   0.992       .  S
O818        H829   0.992       .  S
C820        C821   1.404       .  A
C820        O825   1.373       .  S
C821        C822   1.406       .  A
C821        H826   1.084       .  S
C822        C823   1.411       .  A
C823        C824   1.399       .  A
C823        O827   1.372       .  S
C824        H828   1.083       .  S
O825        H830   0.990       .  S
O827        H831   0.991       .  S
C833        C834   1.399       .  A
C833        C838   1.397       .  A
C833        H843   1.084       .  S
C834        C839   1.487       .  S
C834        C835   1.411       .  A
C835        C836   1.406       .  A
C835        O840   1.374       .  S
C836        C837   1.406       .  A
C836        H841   1.083       .  S
C837        C838   1.417       .  A
C838        O842   1.372       .  S
C839        C844   1.407       .  A
C839        C848   1.408       .  A
O840        H856   0.989       .  S
O842        H853   0.993       .  S
C844        C845   1.394       .  A
C844        O849   1.372       .  S
C845        C846   1.408       .  A
C845        H850   1.083       .  S
C846        C847   1.411       .  A
C847        C848   1.406       .  A
C847        O851   1.371       .  S
C848        H852   1.083       .  S
O849        H854   0.990       .  S
O851        H855   0.990       .  S
C857        C858   1.398       .  A
C857        C862   1.396       .  A
C857        H867   1.083       .  S
C858        C863   1.490       .  S
C858        C859   1.412       .  A
C859        C860   1.409       .  A
C859        O864   1.371       .  S
C860        C861   1.408       .  A
C860        H865   1.083       .  S
C861        C862   1.419       .  A
C862        O866   1.372       .  S
C863        C868   1.413       .  A
C863        C872   1.402       .  A
O864        H880   0.992       .  S
O866        H877   0.992       .  S
C868        C869   1.407       .  A
C868        O873   1.372       .  S
C869        C870   1.403       .  A
C869        H874   1.083       .  S
C870        C871   1.414       .  A
C871        C872   1.399       .  A
C871        O875   1.372       .  S
C872        H876   1.084       .  S
O873        H878   0.991       .  S
O875        H879   0.991       .  S
C881        C882   1.404       .  A
C881        C886   1.401       .  A
C881        H891   1.083       .  S
C882        C887   1.485   1_655  S
C882        C883   1.410       .  A
C883        C884   1.400       .  A
C883        O888   1.371       .  S
C884        C885   1.403       .  A
C884        H889   1.084       .  S
C885        C886   1.409       .  A
C886        O890   1.372       .  S
C887        C892   1.409       .  A
C887        C896   1.403       .  A
O888        H904   0.992       .  S
O890        H901   0.992       .  S
C892        C893   1.403       .  A
C892        O897   1.372       .  S
C893        C894   1.406       .  A
C893        H898   1.083       .  S
C894        C895   1.412       .  A
C895        C896   1.398       .  A
C895        O899   1.372       .  S
C896        H900   1.084       .  S
O897        H902   0.992       .  S
O899        H903   0.993       .  S
C905        C906   1.399   1_554  A
C905        C910   1.399       .  A
C905        H915   1.084       .  S
C906        C911   1.487   1_566  S
C906        C907   1.410       .  A
C907        C908   1.407       .  A
C907        O912   1.373       .  S
C908        C909   1.407       .  A
C908        H913   1.083       .  S
C909        C910   1.418   1_556  A
C910        O914   1.372       .  S
C911        C916   1.406   1_554  A
C911        C920   1.408       .  A
O912        H928   0.991   1_565  S
O914        H925   0.991       .  S
C916        C917   1.395       .  A
C916        O921   1.372       .  S
C917        C918   1.408   1_556  A
C917        H922   1.083       .  S
C918        C919   1.412       .  A
C919        C920   1.409       .  A
C919        O923   1.371       .  S
C920        H924   1.083       .  S
O921        H926   0.992       .  S
O923        H927   0.991       .  S
C929        C930   1.406       .  A
C929        C934   1.404       .  A
C929        H939   1.084       .  S
C930        C935   1.483       .  S
C930        C931   1.405       .  A
C931        C932   1.399       .  A
C931        O936   1.373       .  S
C932        C933   1.404       .  A
C932        H937   1.084       .  S
C933        C934   1.408       .  A
C934        O938   1.371       .  S
C935        C940   1.412       .  A
C935        C944   1.397       .  A
O936        H952   0.990       .  S
O938        H949   0.992       .  S
C940        C941   1.404       .  A
C940        O945   1.371       .  S
C941        C942   1.404       .  A
C941        H946   1.083       .  S
C942        C943   1.419       .  A
C943        C944   1.398       .  A
C943        O947   1.372       .  S
C944        H948   1.084       .  S
O945        H950   0.991       .  S
O947        H951   0.991       .  S
C953        C954   1.403       .  A
C953        C958   1.403       .  A
C953        H963   1.084       .  S
C954        C959   1.481       .  S
C954        C955   1.404       .  A
C955        C956   1.399       .  A
C955        O960   1.372       .  S
C956        C957   1.409       .  A
C956        H961   1.083       .  S
C957        C958   1.413       .  A
C958        O962   1.371       .  S
C959        C964   1.401       .  A
C959        C968   1.405       .  A
O960        H976   0.991       .  S
O962        H973   0.990       .  S
C964        C965   1.397       .  A
C964        O969   1.372       .  S
C965        C966   1.411       .  A
C965        H970   1.083       .  S
C966        C967   1.413       .  A
C967        C968   1.406       .  A
C967        O971   1.371       .  S
C968        H972   1.084       .  S
O969        H974   0.992       .  S
O971        H975   0.991       .  S
C977        C978   1.402   1_554  A
C977        C982   1.399       .  A
C977        H987   1.083       .  S
C978        C983   1.494   1_566  S
C978        C979   1.413       .  A
C979        C980   1.406       .  A
C979        O984   1.371   1_565  S
C980        C981   1.406       .  A
C980        H985   1.083       .  S
C981        C982   1.417   1_556  A
C982        O986   1.372       .  S
C983        C988   1.413       .  A
C983        C992   1.401   1_554  A
O984       H1000   0.991       .  S
O986        H997   0.990       .  S
C988        C989   1.409       .  A
C988        O993   1.372       .  S
C989        C990   1.406       .  A
C989        H994   1.083       .  S
C990        C991   1.419   1_554  A
C991        C992   1.398       .  A
C991        O995   1.372       .  S
C992        H996   1.083       .  S
O993        H998   0.990       .  S
O995        H999   0.990       .  S
C1001      C1002   1.408       .  A
C1001      C1006   1.406       .  A
C1001      H1011   1.083       .  S
C1002      C1007   1.487       .  S
C1002      C1003   1.406       .  A
C1003      C1004   1.397       .  A
C1003      O1008   1.372       .  S
C1004      C1005   1.407       .  A
C1004      H1009   1.084       .  S
C1005      C1006   1.409       .  A
C1006      O1010   1.371       .  S
C1007      C1012   1.405       .  A
C1007      C1016   1.407       .  A
O1008      H1024   0.990       .  S
O1010      H1021   0.991       .  S
C1012      C1013   1.398       .  A
C1012      O1017   1.372       .  S
C1013      C1014   1.410       .  A
C1013      H1018   1.083       .  S
C1014      C1015   1.409       .  A
C1015      C1016   1.404       .  A
C1015      O1019   1.371       .  S
C1016      H1020   1.083       .  S
O1017      H1022   0.991       .  S
O1019      H1023   0.992       .  S
C1025      C1026   1.401       .  A
C1025      C1030   1.398       .  A
C1025      H1035   1.084       .  S
C1026      C1031   1.483       .  S
C1026      C1027   1.410       .  A
C1027      C1028   1.402       .  A
C1027      O1032   1.372       .  S
C1028      C1029   1.405       .  A
C1028      H1033   1.083       .  S
C1029      C1030   1.415       .  A
C1030      O1034   1.372       .  S
C1031      C1036   1.404       .  A
C1031      C1040   1.408       .  A
O1032      H1048   0.992       .  S
O1034      H1045   0.991       .  S
C1036      C1037   1.397       .  A
C1036      O1041   1.373       .  S
C1037      C1038   1.410       .  A
C1037      H1042   1.083       .  S
C1038      C1039   1.409       .  A
C1039      C1040   1.403       .  A
C1039      O1043   1.371       .  S
C1040      H1044   1.084       .  S
O1041      H1046   0.990       .  S
O1043      H1047   0.991       .  S
C1049      C1050   1.404       .  A
C1049      C1054   1.398       .  A
C1049      H1059   1.083       .  S
C1050      C1055   1.483   1_455  S
C1050      C1051   1.411       .  A
C1051      C1052   1.399       .  A
C1051      O1056   1.372       .  S
C1052      C1053   1.401       .  A
C1052      H1057   1.084       .  S
C1053      C1054   1.407       .  A
C1054      O1058   1.372       .  S
C1055      C1060   1.408       .  A
C1055      C1064   1.402       .  A
O1056      H1072   0.991       .  S
O1058      H1069   0.991       .  S
C1060      C1061   1.401       .  A
C1060      O1065   1.372       .  S
C1061      C1062   1.407       .  A
C1061      H1066   1.083       .  S
C1062      C1063   1.413       .  A
C1063      C1064   1.397       .  A
C1063      O1067   1.372       .  S
C1064      H1068   1.084       .  S
O1065      H1070   0.992       .  S
O1067      H1071   0.991       .  S
C1073      C1074   1.405   1_554  A
C1073      C1078   1.402       .  A
C1073      H1083   1.084       .  S
C1074      C1079   1.484       .  S
C1074      C1075   1.406       .  A
C1075      C1076   1.399       .  A
C1075      O1080   1.372       .  S
C1076      C1077   1.409   1_556  A
C1076      H1081   1.083       .  S
C1077      C1078   1.411       .  A
C1078      O1082   1.371       .  S
C1079      C1084   1.409       .  A
C1079      C1088   1.400   1_556  A
O1080      H1096   0.992       .  S
O1082      H1093   0.991       .  S
C1084      C1085   1.404       .  A
C1084      O1089   1.371       .  S
C1085      C1086   1.407       .  A
C1085      H1090   1.083       .  S
C1086      C1087   1.416       .  A
C1087      C1088   1.396   1_556  A
C1087      O1091   1.372   1_556  S
C1088      H1092   1.084       .  S
O1089      H1094   0.992       .  S
O1091      H1095   0.992       .  S
C1097      C1098   1.400       .  A
C1097      C1102   1.391       .  A
C1097      H1107   1.083       .  S
C1098      C1103   1.480       .  S
C1098      C1099   1.411       .  A
C1099      C1100   1.401       .  A
C1099      O1104   1.371       .  S
C1100      C1101   1.404       .  A
C1100      H1105   1.083       .  S
C1101      C1102   1.414       .  A
C1102      O1106   1.373       .  S
C1103      C1108   1.410       .  A
C1103      C1112   1.407   1_556  A
O1104      H1120   0.992       .  S
O1106      H1117   0.991       .  S
C1108      C1109   1.396       .  A
C1108      O1113   1.373       .  S
C1109      C1110   1.400   1_556  A
C1109      H1114   1.084       .  S
C1110      C1111   1.402       .  A
C1111      C1112   1.398       .  A
C1111      O1115   1.372       .  S
C1112      H1116   1.083       .  S
O1113      H1118   0.993       .  S
O1115      H1119   0.992       .  S
C1121      C1122   1.404       .  A
C1121      C1126   1.404       .  A
C1121      H1131   1.084       .  S
C1122      C1127   1.494       .  S
C1122      C1123   1.409       .  A
C1123      C1124   1.405       .  A
C1123      O1128   1.372       .  S
C1124      C1125   1.409       .  A
C1124      H1129   1.083       .  S
C1125      C1126   1.415       .  A
C1126      O1130   1.372       .  S
C1127      C1132   1.410       .  A
C1127      C1136   1.403       .  A
O1128      H1144   0.989       .  S
O1130      H1141   0.992       .  S
C1132      C1133   1.407       .  A
C1132      O1137   1.371       .  S
C1133      C1134   1.407       .  A
C1133      H1138   1.083       .  S
C1134      C1135   1.416       .  A
C1135      C1136   1.403       .  A
C1135      O1139   1.372       .  S
C1136      H1140   1.084       .  S
O1137      H1142   0.992       .  S
O1139      H1143   0.992       .  S
C1145      C1146   1.409   1_556  A
C1145      C1150   1.408       .  A
C1145      H1155   1.083       .  S
C1146      C1151   1.496       .  S
C1146      C1147   1.408       .  A
C1147      C1148   1.399   1_554  A
C1147      O1152   1.372       .  S
C1148      C1149   1.410       .  A
C1148      H1153   1.083   1_556  S
C1149      C1150   1.412       .  A
C1150      O1154   1.371       .  S
C1151      C1156   1.408   1_554  A
C1151      C1160   1.409       .  A
O1152      H1168   0.992       .  S
O1154      H1165   0.993       .  S
C1156      C1157   1.401   1_556  A
C1156      O1161   1.372       .  S
C1157      C1158   1.408       .  A
C1157      H1162   1.084   1_554  S
C1158      C1159   1.412       .  A
C1159      C1160   1.407       .  A
C1159      O1163   1.371       .  S
C1160      H1164   1.083       .  S
O1161      H1166   0.991       .  S
O1163      H1167   0.991       .  S
C1169      C1170   1.403       .  A
C1169      C1174   1.394       .  A
C1169      H1179   1.083       .  S
C1170      C1175   1.479   1_556  S
C1170      C1171   1.410   1_556  A
C1171      C1172   1.397   1_554  A
C1171      O1176   1.372       .  S
C1172      C1173   1.404       .  A
C1172      H1177   1.084   1_556  S
C1173      C1174   1.408       .  A
C1174      O1178   1.372       .  S
C1175      C1180   1.411       .  A
C1175      C1184   1.398       .  A
O1176      H1192   0.991       .  S
O1178      H1189   0.991       .  S
C1180      C1181   1.401       .  A
C1180      O1185   1.373       .  S
C1181      C1182   1.402       .  A
C1181      H1186   1.083       .  S
C1182      C1183   1.417       .  A
C1183      C1184   1.393       .  A
C1183      O1187   1.372       .  S
C1184      H1188   1.084       .  S
O1185      H1190   0.990       .  S
O1187      H1191   0.992       .  S
C1193      C1194   1.407       .  A
C1193      C1198   1.402       .  A
C1193      H1203   1.083       .  S
C1194      C1199   1.496       .  S
C1194      C1195   1.413       .  A
C1195      C1196   1.403       .  A
C1195      O1200   1.372       .  S
C1196      C1197   1.405       .  A
C1196      H1201   1.083       .  S
C1197      C1198   1.410       .  A
C1198      O1202   1.372       .  S
C1199      C1204   1.412       .  A
C1199      C1208   1.408       .  A
O1200      H1216   0.991       .  S
O1202      H1213   0.992       .  S
C1204      C1205   1.401       .  A
C1204      O1209   1.372       .  S
C1205      C1206   1.405       .  A
C1205      H1210   1.084       .  S
C1206      C1207   1.411       .  A
C1207      C1208   1.405       .  A
C1207      O1211   1.371       .  S
C1208      H1212   1.083       .  S
O1209      H1214   0.994       .  S
O1211      H1215   0.993       .  S
C1217      C1218   1.399       .  A
C1217      C1222   1.396       .  A
C1217      H1227   1.084       .  S
C1218      C1223   1.482       .  S
C1218      C1219   1.409       .  A
C1219      C1220   1.405       .  A
C1219      O1224   1.371       .  S
C1220      C1221   1.408       .  A
C1220      H1225   1.083       .  S
C1221      C1222   1.415       .  A
C1222      O1226   1.372       .  S
C1223      C1228   1.410       .  A
C1223      C1232   1.401       .  A
O1224      H1240   0.991       .  S
O1226      H1237   0.991       .  S
C1228      C1229   1.402       .  A
C1228      O1233   1.372       .  S
C1229      C1230   1.402       .  A
C1229      H1234   1.084       .  S
C1230      C1231   1.411       .  A
C1231      C1232   1.401       .  A
C1231      O1235   1.372       .  S
C1232      H1236   1.084       .  S
O1233      H1238   0.992       .  S
O1235      H1239   0.992       .  S
C1241      C1242   1.404       .  A
C1241      C1246   1.399       .  A
C1241      H1251   1.084       .  S
C1242      C1247   1.494   1_545  S
C1242      C1243   1.413       .  A
C1243      C1244   1.406       .  A
C1243      O1248   1.371   1_545  S
C1244      C1245   1.404       .  A
C1244      H1249   1.083       .  S
C1245      C1246   1.411       .  A
C1246      O1250   1.372       .  S
C1247      C1252   1.414       .  A
C1247      C1256   1.406       .  A
O1248      H1264   0.992       .  S
O1250      H1261   0.991       .  S
C1252      C1253   1.402       .  A
C1252      O1257   1.372   1_565  S
C1253      C1254   1.400       .  A
C1253      H1258   1.084       .  S
C1254      C1255   1.410       .  A
C1255      C1256   1.405       .  A
C1255      O1259   1.372       .  S
C1256      H1260   1.083       .  S
O1257      H1262   0.992       .  S
O1259      H1263   0.992       .  S
C1265      C1266   1.398       .  A
C1265      C1270   1.389       .  A
C1265      H1275   1.084       .  S
C1266      C1271   1.474       .  S
C1266      C1267   1.411       .  A
C1267      C1268   1.405       .  A
C1267      O1272   1.372       .  S
C1268      C1269   1.401       .  A
C1268      H1273   1.083       .  S
C1269      C1270   1.409       .  A
C1270      O1274   1.371       .  S
C1271      C1276   1.408       .  A
C1271      C1280   1.402       .  A
O1272      H1288   0.993       .  S
O1274      H1285   0.993       .  S
C1276      C1277   1.397       .  A
C1276      O1281   1.371       .  S
C1277      C1278   1.403       .  A
C1277      H1282   1.084       .  S
C1278      C1279   1.408       .  A
C1279      C1280   1.394       .  A
C1279      O1283   1.373       .  S
C1280      H1284   1.084       .  S
O1281      H1286   0.993       .  S
O1283      H1287   0.993       .  S
C1289      C1290   1.405       .  A
C1289      C1294   1.406       .  A
C1289      H1299   1.083       .  S
C1290      C1295   1.496       .  S
C1290      C1291   1.411       .  A
C1291      C1292   1.403       .  A
C1291      O1296   1.372       .  S
C1292      C1293   1.408       .  A
C1292      H1297   1.083       .  S
C1293      C1294   1.416       .  A
C1294      O1298   1.371       .  S
C1295      C1300   1.412       .  A
C1295      C1304   1.403       .  A
O1296      H1312   0.993       .  S
O1298      H1309   0.993       .  S
C1300      C1301   1.408       .  A
C1300      O1305   1.371       .  S
C1301      C1302   1.407       .  A
C1301      H1306   1.083       .  S
C1302      C1303   1.415       .  A
C1303      C1304   1.399       .  A
C1303      O1307   1.372       .  S
C1304      H1308   1.084       .  S
O1305      H1310   0.993       .  S
O1307      H1311   0.993       .  S
C1313      C1314   1.406       .  A
C1313      C1318   1.404       .  A
C1313      H1323   1.084       .  S
C1314      C1319   1.491       .  S
C1314      C1315   1.407       .  A
C1315      C1316   1.405       .  A
C1315      O1320   1.372       .  S
C1316      C1317   1.410       .  A
C1316      H1321   1.083       .  S
C1317      C1318   1.412       .  A
C1318      O1322   1.371       .  S
C1319      C1324   1.411       .  A
C1319      C1328   1.403       .  A
O1320      H1336   0.992       .  S
O1322      H1333   0.992       .  S
C1324      C1325   1.407       .  A
C1324      O1329   1.371       .  S
C1325      C1326   1.408       .  A
C1325      H1330   1.083       .  S
C1326      C1327   1.414       .  A
C1327      C1328   1.400       .  A
C1327      O1331   1.372       .  S
C1328      H1332   1.084       .  S
O1329      H1334   0.991       .  S
O1331      H1335   0.992       .  S
C1337      C1338   1.405       .  A
C1337      C1342   1.403       .  A
C1337      H1347   1.083       .  S
C1338      C1343   1.491       .  S
C1338      C1339   1.410       .  A
C1339      C1340   1.401       .  A
C1339      O1344   1.372       .  S
C1340      C1341   1.406       .  A
C1340      H1345   1.084       .  S
C1341      C1342   1.412       .  A
C1342      O1346   1.371       .  S
C1343      C1348   1.411       .  A
C1343      C1352   1.401       .  A
O1344      H1360   0.992       .  S
O1346      H1357   0.994       .  S
C1348      C1349   1.406       .  A
C1348      O1353   1.372       .  S
C1349      C1350   1.406       .  A
C1349      H1354   1.083       .  S
C1350      C1351   1.419       .  A
C1351      C1352   1.401       .  A
C1351      O1355   1.372       .  S
C1352      H1356   1.084       .  S
O1353      H1358   0.990       .  S
O1355      H1359   0.992       .  S
C1361      C1362   1.399       .  A
C1361      C1366   1.397       .  A
C1361      H1371   1.083       .  S
C1362      C1367   1.489   1_565  S
C1362      C1363   1.413       .  A
C1363      C1364   1.404       .  A
C1363      O1368   1.372       .  S
C1364      C1365   1.405       .  A
C1364      H1369   1.083       .  S
C1365      C1366   1.418       .  A
C1366      O1370   1.372       .  S
C1367      C1372   1.413       .  A
C1367      C1376   1.399       .  A
O1368      H1384   0.993   1_565  S
O1370      H1381   0.991       .  S
C1372      C1373   1.408       .  A
C1372      O1377   1.372       .  S
C1373      C1374   1.405       .  A
C1373      H1378   1.083       .  S
C1374      C1375   1.417       .  A
C1375      C1376   1.394       .  A
C1375      O1379   1.372       .  S
C1376      H1380   1.084       .  S
O1377      H1382   0.992   1_545  S
O1379      H1383   0.991       .  S
C1385      C1386   1.397       .  A
C1385      C1390   1.398       .  A
C1385      H1395   1.084       .  S
C1386      C1391   1.474       .  S
C1386      C1387   1.408       .  A
C1387      C1388   1.401       .  A
C1387      O1392   1.371       .  S
C1388      C1389   1.402       .  A
C1388      H1393   1.084       .  S
C1389      C1390   1.415       .  A
C1390      O1394   1.372       .  S
C1391      C1396   1.405       .  A
C1391      C1400   1.399       .  A
O1392      H1408   0.993       .  S
O1394      H1405   0.990       .  S
C1396      C1397   1.400       .  A
C1396      O1401   1.372       .  S
C1397      C1398   1.407       .  A
C1397      H1402   1.083       .  S
C1398      C1399   1.415       .  A
C1399      C1400   1.398       .  A
C1399      O1403   1.372       .  S
C1400      H1404   1.084       .  S
O1401      H1406   0.990       .  S
O1403      H1407   0.991       .  S
C1409      C1410   1.402       .  A
C1409      C1414   1.401       .  A
C1409      H1419   1.084       .  S
C1410      C1415   1.481       .  S
C1410      C1411   1.408       .  A
C1411      C1412   1.400       .  A
C1411      O1416   1.372       .  S
C1412      C1413   1.404       .  A
C1412      H1417   1.084       .  S
C1413      C1414   1.414       .  A
C1414      O1418   1.372       .  S
C1415      C1420   1.403       .  A
C1415      C1424   1.404       .  A
O1416      H1432   0.991       .  S
O1418      H1429   0.993       .  S
C1420      C1421   1.398       .  A
C1420      O1425   1.373       .  S
C1421      C1422   1.408       .  A
C1421      H1426   1.083       .  S
C1422      C1423   1.413       .  A
C1423      C1424   1.404       .  A
C1423      O1427   1.371       .  S
C1424      H1428   1.084       .  S
O1425      H1430   0.992       .  S
O1427      H1431   0.991       .  S
C1433      C1434   1.402       .  A
C1433      C1438   1.398       .  A
C1433      H1443   1.084       .  S
C1434      C1439   1.472       .  S
C1434      C1435   1.406       .  A
C1435      C1436   1.396       .  A
C1435      O1440   1.372       .  S
C1436      C1437   1.402       .  A
C1436      H1441   1.084       .  S
C1437      C1438   1.409       .  A
C1438      O1442   1.372       .  S
C1439      C1444   1.406       .  A
C1439      C1448   1.399       .  A
O1440      H1456   0.990       .  S
O1442      H1453   0.992       .  S
C1444      C1445   1.396       .  A
C1444      O1449   1.372       .  S
C1445      C1446   1.405       .  A
C1445      H1450   1.083       .  S
C1446      C1447   1.414       .  A
C1447      C1448   1.398       .  A
C1447      O1451   1.371       .  S
C1448      H1452   1.084       .  S
O1449      H1454   0.992       .  S
O1451      H1455   0.991       .  S
C1457      C1458   1.406       .  A
C1457      C1462   1.395       .  A
C1457      H1467   1.083       .  S
C1458      C1463   1.483       .  S
C1458      C1459   1.411       .  A
C1459      C1460   1.397       .  A
C1459      O1464   1.372       .  S
C1460      C1461   1.403       .  A
C1460      H1465   1.084       .  S
C1461      C1462   1.406       .  A
C1462      O1466   1.372       .  S
C1463      C1468   1.406       .  A
C1463      C1472   1.408       .  A
O1464      H1480   0.992       .  S
O1466      H1477   0.992       .  S
C1468      C1469   1.392       .  A
C1468      O1473   1.373       .  S
C1469      C1470   1.407       .  A
C1469      H1474   1.084       .  S
C1470      C1471   1.409       .  A
C1471      C1472   1.401       .  A
C1471      O1475   1.371       .  S
C1472      H1476   1.083       .  S
O1473      H1478   0.993       .  S
O1475      H1479   0.991       .  S
C1481      C1482   1.403       .  A
C1481      C1486   1.401       .  A
C1481      H1491   1.084       .  S
C1482      C1487   1.490       .  S
C1482      C1483   1.409       .  A
C1483      C1484   1.404       .  A
C1483      O1488   1.373       .  S
C1484      C1485   1.407       .  A
C1484      H1489   1.083       .  S
C1485      C1486   1.415       .  A
C1486      O1490   1.372       .  S
C1487      C1492   1.409       .  A
C1487      C1496   1.406       .  A
O1488      H1504   0.992       .  S
O1490      H1501   0.991       .  S
C1492      C1493   1.399       .  A
C1492      O1497   1.372       .  S
C1493      C1494   1.407       .  A
C1493      H1498   1.084       .  S
C1494      C1495   1.411       .  A
C1495      C1496   1.405       .  A
C1495      O1499   1.371       .  S
C1496      H1500   1.083       .  S
O1497      H1502   0.993       .  S
O1499      H1503   0.992       .  S
