geometry optimzed in LAMMPS
_audit_creation_date              2020-12-01 
_audit_creation_method            'lammps2cif' 
_symmetry_space_group_name_H-M    'P1' 
_symmetry_Int_Tables_number       1 
_symmetry_cell_setting            triclinic 
loop_ 
_symmetry_equiv_pos_as_xyz 
  x,y,z 
_cell_length_a                    49.19638142 
_cell_length_b                    43.53369966938264 
_cell_length_c                    106.5964984211561 
_cell_angle_alpha                 89.94918884032329 
_cell_angle_beta                  89.91642316086968 
_cell_angle_gamma                 90.26768095302381 
loop_ 
_atom_site_label 
_atom_site_type_symbol 
_atom_site_fract_x 
_atom_site_fract_y 
_atom_site_fract_z 
_atom_site_charge 
Fe1        Fe  0.96331619  0.21858119  0.45108254     1.65800
Fe2        Fe  0.94593818  0.14326550  0.45187769     1.73200
Fe3        Fe  0.93984807  0.18730059  0.47804355     1.54400
O4          O  0.97749002  0.20487730  0.48253497    -0.82000
O5          O  0.90999674  0.13183866  0.46148925    -0.80300
O6          O  0.98474369  0.23625142  0.46637319    -0.84500
O7          O  0.93002250  0.24408150  0.45568832    -0.79300
O8          O  0.95386022  0.14368051  0.48286582    -0.81100
O9          O  0.92314302  0.16172156  0.43747359    -0.83900
C10         C  0.92035206  0.24953127  0.46647822     0.96900
C11         C  0.98994893  0.22727254  0.47748008     1.04300
O12         O  0.94957599  0.18299556  0.46032598    -1.12800
O13         O  0.98225989  0.14849846  0.44175471    -0.75300
O14         O  0.99773708  0.19553272  0.44594904    -0.78800
O15         O  0.92439989  0.23181365  0.47581538    -0.79400
C16         C  0.00118990  0.16862943  0.44170387     0.95800
O17         O  0.94365792  0.20676244  0.43445871    -0.77400
O18         O  0.96825683  0.12129609  0.46533241    -0.82600
C19         C  0.89506040  0.14437094  0.46983570     0.98400
C20         C  0.96563720  0.12176313  0.47715282     1.04400
O21         O  0.90154906  0.16957849  0.47506676    -0.78200
C22         C  0.92717229  0.18582402  0.43099136     1.02700
Fe23       Fe  0.77820561  0.21808288  0.30746679     1.65800
Fe24       Fe  0.79209223  0.14238263  0.30495446     1.73200
Fe25       Fe  0.80183787  0.18929240  0.27981453     1.54400
O26         O  0.76623003  0.21190535  0.27527942    -0.82000
O27         O  0.82657135  0.12913429  0.29519460    -0.80300
O28         O  0.75703844  0.23800682  0.29272165    -0.84500
O29         O  0.81170137  0.24421362  0.30322123    -0.79300
O30         O  0.78434256  0.14787422  0.27394370    -0.81100
O31         O  0.81627544  0.15750144  0.31945615    -0.83900
C32         C  0.82337064  0.24917765  0.29278450     0.96900
C33         C  0.75318108  0.23258795  0.28113089     1.04300
O34         O  0.79092017  0.18339455  0.29738151    -1.12800
O35         O  0.75704852  0.14803847  0.31555671    -0.75300
O36         O  0.74281785  0.19556045  0.31211022    -0.78800
O37         O  0.82088543  0.23131266  0.28338763    -0.79400
C38         C  0.73858698  0.16830064  0.31579457     0.95800
O39         O  0.79815559  0.20311791  0.32372616    -0.77400
O40         O  0.76815031  0.12437144  0.29101812    -0.82600
C41         C  0.84254252  0.14086909  0.28711787     0.98400
C42         C  0.77105270  0.12619130  0.27920689     1.04400
O43         O  0.83845303  0.16722789  0.28237843    -0.78200
C44         C  0.81370816  0.18077137  0.32653631     1.02700
Fe45       Fe  0.53105477  0.79153596  0.05700102     1.65800
Fe46       Fe  0.54645030  0.86739167  0.05407437     1.73200
Fe47       Fe  0.55097823  0.82016363  0.02866991     1.54400
O48         O  0.56955353  0.77775716  0.03157859    -0.82000
O49         O  0.52273108  0.88754926  0.04047380    -0.80300
O50         O  0.56392677  0.76569514  0.05177227    -0.84500
O51         O  0.50726722  0.77180108  0.04290550    -0.79300
O52         O  0.58847831  0.84148771  0.02985630    -0.81100
O53         O  0.51138114  0.86277166  0.06495686    -0.83900
C54         C  0.50179158  0.77791884  0.03150772     0.96900
C55         C  0.57419650  0.76072341  0.04104313     1.04300
O56         O  0.54290638  0.82637924  0.04656242    -1.12800
O57         O  0.57099915  0.85139121  0.06836371    -0.75300
O58         O  0.55298257  0.80564233  0.07275558    -0.78800
O59         O  0.51428975  0.79874501  0.02545144    -0.79400
C60         C  0.56888271  0.82787593  0.07535736     0.95800
O61         O  0.49714031  0.81442214  0.06293577    -0.77400
O62         O  0.58118484  0.87848245  0.04387232    -0.82600
C63         C  0.52285080  0.88451280  0.02862734     0.98400
C64         C  0.59519763  0.86661636  0.03509344     1.04400
O65         O  0.53357135  0.86150771  0.02321291    -0.78200
C66         C  0.49337660  0.84194728  0.06636767     1.02700
Fe67       Fe  0.71834536  0.79054959  0.19794613     1.65800
Fe68       Fe  0.70446775  0.86552884  0.20069338     1.73200
Fe69       Fe  0.69780790  0.81893724  0.22591722     1.54400
O70         O  0.67944212  0.77616589  0.22260964    -0.82000
O71         O  0.73059357  0.88337492  0.21377820    -0.80300
O72         O  0.68338273  0.76694696  0.20207007    -0.84500
O73         O  0.73872821  0.76862351  0.21259243    -0.79300
O74         O  0.66024647  0.83950061  0.22392440    -0.81100
O75         O  0.73789878  0.85884665  0.18895571    -0.83900
C76         C  0.74498646  0.77514167  0.22387636     0.96900
C77         C  0.67361448  0.76067405  0.21280390     1.04300
O78         O  0.70682099  0.82497270  0.20825167    -1.12800
O79         O  0.67803498  0.84983091  0.18710973    -0.75300
O80         O  0.69956747  0.80703280  0.18166952    -0.78800
O81         O  0.73445732  0.79775696  0.22959449    -0.79400
C82         C  0.68221272  0.82798741  0.17946559     0.95800
O83         O  0.75398170  0.81248618  0.19344438    -0.77400
O84         O  0.67142198  0.87891380  0.21163118    -0.82600
C85         C  0.72839041  0.88233669  0.22563333     0.98400
C86         C  0.65567679  0.86613867  0.21957505     1.04400
O87         O  0.71503829  0.86119246  0.23127767    -0.78200
C88         C  0.75692852  0.83913303  0.18880551     1.02700
Fe89       Fe  0.27470197  0.21398135  0.80378234     1.65800
Fe90       Fe  0.29630377  0.14042070  0.80277542     1.73200
Fe91       Fe  0.30271711  0.18567041  0.77702366     1.54400
O92         O  0.26555958  0.20348491  0.77177613    -0.82000
O93         O  0.33216177  0.12992858  0.79329381    -0.80300
O94         O  0.25312655  0.23084072  0.78842020    -0.84500
O95         O  0.30616178  0.24318058  0.79974320    -0.79300
O96         O  0.28897441  0.14212158  0.77174580    -0.81100
O97         O  0.31872314  0.16022399  0.81698145    -0.83900
C98         C  0.31883749  0.24805121  0.78955502     0.96900
C99         C  0.25066121  0.22366183  0.77690361     1.04300
O100        O  0.29139750  0.18017383  0.79448440    -1.12800
O101        O  0.26044597  0.14312788  0.81316086    -0.75300
O102        O  0.24142710  0.18763483  0.80816943    -0.78800
O103        O  0.31815820  0.22961119  0.78028298    -0.79400
C104        C  0.23989921  0.16068173  0.81260038     0.95800
O105        O  0.29437279  0.20238724  0.82054026    -0.77400
O106        O  0.27436354  0.11847354  0.78912966    -0.82600
C107        C  0.34735035  0.14300823  0.78522057     0.98400
C108        C  0.27710109  0.11985058  0.77730517     1.04400
O109        O  0.34098803  0.16841999  0.78021982    -0.78200
C110        C  0.31260220  0.18317680  0.82375894     1.02700
Fe111      Fe  0.46903158  0.21948146  0.94568510     1.65800
Fe112      Fe  0.44858511  0.14581021  0.94839130     1.73200
Fe113      Fe  0.44383884  0.19407534  0.97346118     1.54400
O114        O  0.48126956  0.21347831  0.97766967    -0.82000
O115        O  0.41210708  0.13766353  0.95750849    -0.80300
O116        O  0.48918971  0.24057297  0.96041780    -0.84500
O117        O  0.43555662  0.24619826  0.94882409    -0.79300
O118        O  0.45835047  0.15160485  0.97969263    -0.81100
O119        O  0.42703963  0.16330692  0.93335080    -0.83900
C120        C  0.42459216  0.25327835  0.95922268     0.96900
C121        C  0.49388804  0.23466097  0.97186447     1.04300
O122        O  0.45368655  0.18634688  0.95592300    -1.12800
O123        O  0.48532665  0.14797922  0.93871158    -0.75300
O124        O  0.50323906  0.19428867  0.94230233    -0.78800
O125        O  0.42789414  0.23749303  0.96921774    -0.79400
C126        C  0.50537208  0.16661043  0.93872475     0.95800
O127        O  0.45178592  0.20465478  0.92896044    -0.77400
O128        O  0.46905546  0.12432832  0.96269142    -0.82600
C129        C  0.39787869  0.15060353  0.96592996     0.98400
C130        C  0.46807100  0.12762307  0.97451468     1.04400
O131        O  0.40547485  0.17513367  0.97139091    -0.78200
C132        C  0.43402533  0.18477174  0.92595631     1.02700
Fe133      Fe  0.21867176  0.78455989  0.69663581     1.65800
Fe134      Fe  0.20529730  0.86071836  0.69716067     1.73200
Fe135      Fe  0.19239876  0.81733613  0.72304043     1.54400
O136        O  0.17321660  0.77517741  0.72015585    -0.82000
O137        O  0.22827218  0.88022256  0.71104921    -0.80300
O138        O  0.18479151  0.75955593  0.70097272    -0.84500
O139        O  0.23888655  0.76703195  0.71221318    -0.79300
O140        O  0.15637592  0.83932622  0.71912414    -0.81100
O141        O  0.24159872  0.85321424  0.68741442    -0.83900
C142        C  0.24062275  0.77355068  0.72382133     0.96900
C143        C  0.17188618  0.75599675  0.71116930     1.04300
O144        O  0.20544090  0.82075012  0.70566316    -1.12800
O145        O  0.18196231  0.84346023  0.68279030    -0.75300
O146        O  0.19969740  0.79696859  0.67978244    -0.78800
O147        O  0.22673673  0.79462942  0.72893904    -0.79400
C148        C  0.18400442  0.81879495  0.67651842     0.95800
O149        O  0.25432625  0.80560719  0.69179133    -0.77400
O150        O  0.16968377  0.87586319  0.70588819    -0.82600
C151        C  0.22479398  0.87939798  0.72283378     0.98400
C152        C  0.15259895  0.86490921  0.71369953     1.04400
O153        O  0.21029311  0.85898971  0.72826844    -0.78200
C154        C  0.25945299  0.83217132  0.68760405     1.02700
Fe155      Fe  0.02610325  0.78341532  0.55532674     1.65800
Fe156      Fe  0.04352909  0.85877264  0.55350408     1.73200
Fe157      Fe  0.05242660  0.81280855  0.52807070     1.54400
O158        O  0.07104012  0.77119608  0.53168581    -0.82000
O159        O  0.02144518  0.87898957  0.53945602    -0.80300
O160        O  0.05834109  0.75563834  0.55082953    -0.84500
O161        O  0.00419802  0.76561704  0.54041492    -0.79300
O162        O  0.08939882  0.83449073  0.53071405    -0.81100
O163        O  0.00741227  0.85439913  0.56348298    -0.83900
C164        C  0.00221557  0.77079770  0.52872424     0.96900
C165        C  0.07184302  0.75224561  0.54075834     1.04300
O166        O  0.04080889  0.81818000  0.54558749    -1.12800
O167        O  0.06630807  0.84141908  0.56802938    -0.75300
O168        O  0.04649343  0.79615046  0.57177891    -0.78800
O169        O  0.01705450  0.79034041  0.52307730    -0.79400
C170        C  0.06310870  0.81752100  0.57471018     0.95800
O171        O  0.99169002  0.80729464  0.56013914    -0.77400
O172        O  0.07928864  0.87099377  0.54444816    -0.82600
C173        C  0.02319258  0.87636993  0.52761928     0.98400
C174        C  0.09488045  0.85962489  0.53618656     1.04400
O175        O  0.03518905  0.85397855  0.52232990    -0.78200
C176        C  0.98822935  0.83478783  0.56362936     1.02700
Fe177      Fe  0.22016020  0.97310942  0.05603491     1.65800
Fe178      Fe  0.20821752  0.89701822  0.05310980     1.73200
Fe179      Fe  0.20100967  0.94399573  0.02806420     1.54400
O180        O  0.18318056  0.98682237  0.03102449    -0.82000
O181        O  0.23338636  0.87956367  0.03960100    -0.80300
O182        O  0.18511689  0.99561147  0.05157501    -0.84500
O183        O  0.24118458  0.99484442  0.04129155    -0.79300
O184        O  0.16361576  0.92390085  0.03031072    -0.81100
O185        O  0.24297435  0.90405347  0.06403378    -0.83900
C186        C  0.24799882  0.98766132  0.03011105     0.96900
C187        C  0.17629384  0.00197046  0.04072363     1.04300
O188        O  0.20975458  0.93799099  0.04575991    -1.12800
O189        O  0.18307670  0.91099958  0.06745453    -0.75300
O190        O  0.20057590  0.95670928  0.07223979    -0.78800
O191        O  0.23788462  0.96452609  0.02455506    -0.79400
C192        C  0.18549674  0.93366317  0.07486476     0.95800
O193        O  0.25586611  0.95265895  0.06104609    -0.77400
O194        O  0.17386020  0.88419574  0.04261368    -0.82600
C195        C  0.23058234  0.88071752  0.02780959     0.98400
C196        C  0.15838098  0.89738602  0.03466482     1.04400
O197        O  0.21718853  0.90190481  0.02242528    -0.78200
C198        C  0.26058765  0.92555809  0.06479907     1.02700
Fe199      Fe  0.02587348  0.96948791  0.19750673     1.65800
Fe200      Fe  0.04815518  0.89612152  0.20021024     1.73200
Fe201      Fe  0.04726452  0.94299649  0.22586958     1.54400
O202        O  0.06386608  0.98659649  0.22272242    -0.82000
O203        O  0.02582887  0.87344185  0.21356040    -0.80300
O204        O  0.05636051  0.99886681  0.20262323    -0.84500
O205        O  0.00112954  0.98745228  0.21157244    -0.79300
O206        O  0.08573232  0.92529435  0.22518957    -0.81100
O207        O  0.01286611  0.89675460  0.18936853    -0.83900
C208        C  0.99600531  0.98107099  0.22297235     0.96900
C209        C  0.06661510  0.00446079  0.21330726     1.04300
O210        O  0.04070955  0.93625200  0.20789008    -1.12800
O211        O  0.07118507  0.91483548  0.18583114    -0.75300
O212        O  0.04839385  0.95752876  0.18158423    -0.78800
O213        O  0.00943671  0.96119469  0.22897956    -0.79400
C214        C  0.06613409  0.93749403  0.17870919     0.95800
O215        O  0.99384134  0.94259612  0.19206333    -0.77400
O216        O  0.08365903  0.88895780  0.21053392    -0.82600
C217        C  0.02308677  0.87663173  0.22530883     0.98400
C218        C  0.09549084  0.90192999  0.21976006     1.04400
O219        O  0.03148023  0.90031657  0.23117088    -0.78200
C220        C  0.99267633  0.91485170  0.18851167     1.02700
Fe221      Fe  0.97086150  0.53719998  0.30521473     1.65800
Fe222      Fe  0.95145015  0.61114977  0.30453596     1.73200
Fe223      Fe  0.94739246  0.56793193  0.27804173     1.54400
O224        O  0.98463160  0.54872010  0.27343768    -0.82000
O225        O  0.91693430  0.62339346  0.29439019    -0.80300
O226        O  0.99276141  0.51957378  0.29010690    -0.84500
O227        O  0.93833105  0.51060225  0.30051434    -0.79300
O228        O  0.96305157  0.61157897  0.27371606    -0.81100
O229        O  0.92698233  0.59110343  0.31794867    -0.83900
C230        C  0.92723870  0.50591394  0.28994754     0.96900
C231        C  0.99741805  0.52704460  0.27875916     1.04300
O232        O  0.95645082  0.57205341  0.29584318    -1.12800
O233        O  0.98606944  0.60611113  0.31564443    -0.75300
O234        O  0.00460722  0.56155050  0.31023254    -0.78800
O235        O  0.93011473  0.52411579  0.28061604    -0.79400
C236        C  0.00614709  0.58779733  0.31528820     0.95800
O237        O  0.95102241  0.54909423  0.32192615    -0.77400
O238        O  0.97536879  0.63365293  0.29178460    -0.82600
C239        C  0.90276395  0.61172593  0.28561373     0.98400
C240        C  0.97397919  0.63351213  0.27990932     1.04400
O241        O  0.90933492  0.58674609  0.28030987    -0.78200
C242        C  0.93288559  0.56854977  0.32496605     1.02700
Fe243      Fe  0.77336337  0.54059304  0.44692472     1.65800
Fe244      Fe  0.79434149  0.61468665  0.44890642     1.73200
Fe245      Fe  0.80055242  0.56708118  0.47420946     1.54400
O246        O  0.76412059  0.54707604  0.47916896    -0.82000
O247        O  0.83082235  0.62400781  0.45796636    -0.80300
O248        O  0.75109898  0.52237428  0.46193551    -0.84500
O249        O  0.80551514  0.51217791  0.45066863    -0.79300
O250        O  0.78532663  0.60916296  0.48017574    -0.81100
O251        O  0.81581556  0.59690911  0.43392702    -0.83900
C252        C  0.81862396  0.50689679  0.46068955     0.96900
C253        C  0.74876845  0.52805437  0.47359695     1.04300
O254        O  0.78952070  0.57409353  0.45672420    -1.12800
O255        O  0.75784339  0.61250964  0.43903722    -0.75300
O256        O  0.73993934  0.56632907  0.44260833    -0.78800
O257        O  0.81719504  0.52420057  0.47030046    -0.79400
C258        C  0.73793025  0.59377550  0.43876885     0.95800
O259        O  0.79290586  0.55363115  0.43030855    -0.77400
O260        O  0.77357675  0.63590189  0.46315989    -0.82600
C261        C  0.84537898  0.61121937  0.46629539     0.98400
C262        C  0.77471741  0.63259696  0.47498352     1.04400
O263        O  0.83835452  0.58637900  0.47162858    -0.78200
C264        C  0.81001759  0.57414355  0.42697244     1.02700
Fe265      Fe  0.53250467  0.96647616  0.70116900     1.65800
Fe266      Fe  0.54852511  0.89144448  0.70201104     1.73200
Fe267      Fe  0.55727012  0.93524189  0.72784000     1.54400
O268        O  0.57424941  0.97883814  0.72512171    -0.82000
O269        O  0.52439500  0.87163804  0.71535806    -0.80300
O270        O  0.56644988  0.99143893  0.70516535    -0.84500
O271        O  0.51237484  0.98499284  0.71678993    -0.79300
O272        O  0.59473513  0.91676508  0.72428641    -0.81100
O273        O  0.51327419  0.89803178  0.69134242    -0.83900
C274        C  0.50808630  0.97636422  0.72806591     0.96900
C275        C  0.57744386  0.99654551  0.71570252     1.04300
O276        O  0.54617611  0.93113719  0.71036327    -1.12800
O277        O  0.57281090  0.90944931  0.68808959    -0.75300
O278        O  0.55102175  0.95321647  0.68425734    -0.78800
O279        O  0.52072689  0.95405223  0.73294567    -0.79400
C280        C  0.56819151  0.93263729  0.68118502     0.95800
O281        O  0.49740260  0.94389946  0.69671377    -0.77400
O282        O  0.58328289  0.87781820  0.71190615    -0.82600
C283        C  0.52728464  0.87189641  0.72716994     0.98400
C284        C  0.59939476  0.89045039  0.71973172     1.04400
O285        O  0.54150987  0.89216837  0.73281946    -0.78200
C286        C  0.49416378  0.91766329  0.69181060     1.02700
Fe287      Fe  0.71227176  0.96620337  0.55621809     1.65800
Fe288      Fe  0.69205558  0.89243331  0.55505809     1.73200
Fe289      Fe  0.68700116  0.93725885  0.52924935     1.54400
O290        O  0.67214264  0.98187029  0.53222679    -0.82000
O291        O  0.71485028  0.87051176  0.54177163    -0.80300
O292        O  0.67898425  0.99254815  0.55248815    -0.84500
O293        O  0.73253718  0.98537079  0.54073580    -0.79300
O294        O  0.64845702  0.91996589  0.53210894    -0.81100
O295        O  0.72747178  0.89684844  0.56567163    -0.83900
C296        C  0.73712749  0.97682550  0.52950739     0.96900
C297        C  0.66876161  0.99887234  0.54186775     1.04300
O298        O  0.69694828  0.93197868  0.54678376    -1.12800
O299        O  0.66850106  0.91197890  0.56880514    -0.75300
O300        O  0.69381084  0.95301453  0.57319427    -0.78800
O301        O  0.72470317  0.95430394  0.52461137    -0.79400
C302        C  0.67471496  0.93424162  0.57592485     0.95800
O303        O  0.74652985  0.94118460  0.56001705    -0.77400
O304        O  0.65694049  0.88135098  0.54517874    -0.82600
C305        C  0.71275009  0.87161541  0.52991978     0.98400
C306        C  0.64217163  0.89422368  0.53693920     1.04400
O307        O  0.70092036  0.89365091  0.52425651    -0.78200
C308        C  0.74823133  0.91419532  0.56444162     1.02700
Fe309      Fe  0.46489692  0.53579301  0.80573244     1.65800
Fe310      Fe  0.44899713  0.61021380  0.80391177     1.73200
Fe311      Fe  0.44326715  0.56582265  0.77809884     1.54400
O312        O  0.47971048  0.54465442  0.77408190    -0.82000
O313        O  0.41711597  0.62485473  0.79270089    -0.80300
O314        O  0.48609921  0.51566086  0.79099442    -0.84500
O315        O  0.43137974  0.51041055  0.80117389    -0.79300
O316        O  0.46086454  0.60846125  0.77346793    -0.81100
O317        O  0.42193687  0.59270011  0.81674061    -0.83900
C318        C  0.42117824  0.50513751  0.79044718     0.96900
C319        C  0.49104690  0.52223662  0.77958566     1.04300
O320        O  0.45218739  0.57041044  0.79581886    -1.12800
O321        O  0.48142782  0.60335891  0.81611007    -0.75300
O322        O  0.49969763  0.55896053  0.81054423    -0.78800
O323        O  0.42489399  0.52285745  0.78102341    -0.79400
C324        C  0.50147886  0.58509821  0.81569732     0.95800
O325        O  0.44490568  0.55061891  0.82197627    -0.77400
O326        O  0.47575487  0.62895430  0.79143184    -0.82600
C327        C  0.40198234  0.61351804  0.78422869     0.98400
C328        C  0.47388490  0.62910682  0.77956197     1.04400
O329        O  0.40575398  0.58663233  0.78000180    -0.78200
C330        C  0.42670745  0.57066475  0.82421459     1.02700
Fe331      Fe  0.28028339  0.54261219  0.94696526     1.65800
Fe332      Fe  0.29665757  0.61737060  0.94904427     1.73200
Fe333      Fe  0.30140284  0.57194947  0.97472333     1.54400
O334        O  0.26409510  0.55200570  0.97847764    -0.82000
O335        O  0.33025649  0.62984349  0.95971107    -0.80300
O336        O  0.25859543  0.52245564  0.96166151    -0.84500
O337        O  0.31400625  0.51754838  0.95149006    -0.79300
O338        O  0.28562853  0.61505544  0.97967666    -0.81100
O339        O  0.32248277  0.60031151  0.93568562    -0.83900
C340        C  0.32384648  0.51192159  0.96224981     0.96900
C341        C  0.25269642  0.52961216  0.97291474     1.04300
O342        O  0.29289356  0.57725590  0.95697003    -1.12800
O343        O  0.26279189  0.61165341  0.93750969    -0.75300
O344        O  0.24560313  0.56569322  0.94208682    -0.78800
O345        O  0.31873467  0.52856805  0.97182440    -0.79400
C346        C  0.24315489  0.59251835  0.93758896     0.95800
O347        O  0.30048051  0.55726145  0.93076572    -0.77400
O348        O  0.27140559  0.63686681  0.96193012    -0.82600
C349        C  0.34512791  0.61743391  0.96802871     0.98400
C350        C  0.27364110  0.63663338  0.97376867     1.04400
O351        O  0.33941502  0.59144064  0.97277490    -0.78200
C352        C  0.31840839  0.57770376  0.92844273     1.02700
Fe353      Fe  0.71797060  0.47152581  0.05354558     1.65800
Fe354      Fe  0.70195808  0.39582176  0.05166620     1.73200
Fe355      Fe  0.69526584  0.44163464  0.02615134     1.54400
O356        O  0.67938825  0.48562783  0.02881061    -0.82000
O357        O  0.72472884  0.37507472  0.03788882    -0.80300
O358        O  0.68453916  0.49718758  0.04899678    -0.84500
O359        O  0.73975882  0.49027840  0.03849085    -0.79300
O360        O  0.65717978  0.42316908  0.02885423    -0.81100
O361        O  0.73795577  0.40098486  0.06191045    -0.83900
C362        C  0.74522631  0.48191591  0.02731441     0.96900
C363        C  0.67504545  0.50302016  0.03819942     1.04300
O364        O  0.70497028  0.43630013  0.04380505    -1.12800
O365        O  0.67844608  0.41280652  0.06613535    -0.75300
O366        O  0.69797033  0.45805634  0.07000930    -0.78800
O367        O  0.73281582  0.45987963  0.02200115    -0.79400
C368        C  0.68164856  0.43642309  0.07297006     0.95800
O369        O  0.75258130  0.44881695  0.05865250    -0.77400
O370        O  0.66643352  0.38460203  0.04193422    -0.82600
C371        C  0.72126716  0.37614157  0.02610883     0.98400
C372        C  0.65132571  0.39732988  0.03373879     1.04400
O373        O  0.70935076  0.39852971  0.02079769    -0.78200
C374        C  0.75645864  0.42155187  0.06240558     1.02700
Fe375      Fe  0.53235236  0.47069331  0.19702785     1.65800
Fe376      Fe  0.55012943  0.39630585  0.19852529     1.73200
Fe377      Fe  0.55317534  0.44054808  0.22471552     1.54400
O378        O  0.57061737  0.48410087  0.22210444    -0.82000
O379        O  0.52531814  0.37511436  0.21126162    -0.80300
O380        O  0.56555156  0.49661124  0.20189866    -0.84500
O381        O  0.50997609  0.48954638  0.21179864    -0.79300
O382        O  0.59116228  0.42146150  0.22313096    -0.81100
O383        O  0.51570357  0.40140881  0.18717181    -0.83900
C384        C  0.50388205  0.48159961  0.22295613     0.96900
C385        C  0.57531631  0.50169769  0.21273940     1.04300
O386        O  0.54550233  0.43589985  0.20680937    -1.12800
O387        O  0.57546561  0.41494561  0.18508399    -0.75300
O388        O  0.55274712  0.45753977  0.18052745    -0.78800
O389        O  0.51583802  0.45967929  0.22845129    -0.79400
C390        C  0.57072333  0.43752271  0.17788389     0.95800
O391        O  0.49808134  0.44671573  0.19213668    -0.77400
O392        O  0.58413832  0.38431937  0.20916163    -0.82600
C393        C  0.52523423  0.37604477  0.22314569     0.98400
C394        C  0.59782059  0.39622334  0.21807428     1.04400
O395        O  0.53666323  0.39759293  0.22933012    -0.78200
C396        C  0.49568505  0.41984798  0.18769494     1.02700
Fe397      Fe  0.27618900  0.03349260  0.44712386     1.65800
Fe398      Fe  0.29108836  0.10926799  0.44758732     1.73200
Fe399      Fe  0.30112873  0.06593996  0.47383777     1.54400
O400        O  0.26537425  0.04403554  0.47921830    -0.82000
O401        O  0.32675204  0.12318200  0.45643596    -0.80300
O402        O  0.25616022  0.01510232  0.46256848    -0.84500
O403        O  0.31017319  0.00883166  0.45132154    -0.79300
O404        O  0.28417233  0.10807398  0.47894934    -0.81100
O405        O  0.31368224  0.09194274  0.43287087    -0.83900
C406        C  0.32214325  0.00493162  0.46173172     0.96900
C407        C  0.25229604  0.02230667  0.47398380     1.04300
O408        O  0.28969044  0.06952953  0.45622145    -1.12800
O409        O  0.25453183  0.10237007  0.43804675    -0.75300
O410        O  0.24072392  0.05498731  0.44262024    -0.78800
O411        O  0.31981735  0.02345987  0.47092817    -0.79400
C412        C  0.23615559  0.08171508  0.43847709     0.95800
O413        O  0.29406614  0.04632550  0.43010465    -0.77400
O414        O  0.26891294  0.12993951  0.46140275    -0.82600
C415        C  0.34253969  0.11292560  0.46489403     0.98400
C416        C  0.27165925  0.12948362  0.47322304     1.04400
O417        O  0.33790169  0.08773682  0.47056950    -0.78200
C418        C  0.30938497  0.06809162  0.42630505     1.02700
Fe419      Fe  0.46515672  0.04014046  0.30325674     1.65800
Fe420      Fe  0.44413410  0.11377592  0.30197088     1.73200
Fe421      Fe  0.44168839  0.06909877  0.27559548     1.54400
O422        O  0.47857144  0.04899727  0.27133232    -0.82000
O423        O  0.40878688  0.12361934  0.29216123    -0.80300
O424        O  0.48872967  0.02314512  0.28867532    -0.84500
O425        O  0.43360752  0.01201199  0.29825067    -0.79300
O426        O  0.45814748  0.11193561  0.27077780    -0.81100
O427        O  0.42091676  0.09414826  0.31602458    -0.83900
C428        C  0.42224999  0.00721984  0.28773241     0.96900
C429        C  0.49267002  0.02930009  0.27716956     1.04300
O430        O  0.45016311  0.07429926  0.29352885    -1.12800
O431        O  0.47950260  0.11105603  0.31270413    -0.75300
O432        O  0.49808684  0.06573559  0.30856792    -0.78800
O433        O  0.42442067  0.02572751  0.27848465    -0.79400
C434        C  0.49964422  0.09281723  0.31283896     0.95800
O435        O  0.44419182  0.05143772  0.31964040    -0.77400
O436        O  0.46655859  0.13668174  0.28873996    -0.82600
C437        C  0.39561068  0.11217377  0.28302990     0.98400
C438        C  0.46774808  0.13474136  0.27687707     1.04400
O439        O  0.40364795  0.08845340  0.27722163    -0.78200
C440        C  0.42658596  0.07124047  0.32288823     1.02700
Fe441      Fe  0.02717001  0.46770107  0.69627321     1.65800
Fe442      Fe  0.04508088  0.39311084  0.69864163     1.73200
Fe443      Fe  0.05001060  0.43963594  0.72407464     1.54400
O444        O  0.06813578  0.48224986  0.72069425    -0.82000
O445        O  0.02082153  0.37281271  0.71193666    -0.80300
O446        O  0.05988609  0.49464819  0.70069459    -0.84500
O447        O  0.00494215  0.48731357  0.71087561    -0.79300
O448        O  0.08772329  0.41970069  0.72224447    -0.81100
O449        O  0.01061885  0.39746893  0.68738725    -0.83900
C450        C  0.00049693  0.48127107  0.72238064     0.96900
C451        C  0.07124603  0.49969504  0.71118113     1.04300
O452        O  0.04086941  0.43356463  0.70639176    -1.12800
O453        O  0.06988481  0.41079970  0.68480706    -0.75300
O454        O  0.04772287  0.45370845  0.68003392    -0.78800
O455        O  0.01331862  0.46031111  0.72812723    -0.79400
C456        C  0.06546406  0.43334481  0.67753178     0.95800
O457        O  0.99306758  0.44331282  0.69148676    -0.77400
O458        O  0.07935803  0.38130483  0.70908683    -0.82600
C459        C  0.02175662  0.37496824  0.72380389     0.98400
C460        C  0.09383321  0.39387826  0.71754691     1.04400
O461        O  0.03319091  0.39746710  0.72939770    -0.78200
C462        C  0.99086870  0.41624549  0.68724569     1.02700
Fe463      Fe  0.21888817  0.46615749  0.55480101     1.65800
Fe464      Fe  0.19978640  0.39176352  0.55386651     1.73200
Fe465      Fe  0.19535073  0.43521882  0.52772492     1.54400
O466        O  0.17996202  0.47961672  0.52992892    -0.82000
O467        O  0.22404188  0.37047156  0.54109187    -0.80300
O468        O  0.18682584  0.49318952  0.54987828    -0.84500
O469        O  0.24121836  0.48318563  0.53958256    -0.79300
O470        O  0.15680340  0.41849007  0.53060575    -0.81100
O471        O  0.23434548  0.39672683  0.56509016    -0.83900
C472        C  0.24605228  0.47436614  0.52840365     0.96900
C473        C  0.17690721  0.49809564  0.53909132     1.04300
O474        O  0.20458124  0.43118262  0.54543834    -1.12800
O475        O  0.17503430  0.41106943  0.56716217    -0.75300
O476        O  0.19793785  0.45418526  0.57130317    -0.78800
O477        O  0.23314450  0.45240402  0.52330922    -0.79400
C478        C  0.17961728  0.43436669  0.57398610     0.95800
O479        O  0.25251370  0.44196845  0.56012953    -0.77400
O480        O  0.16529163  0.37971975  0.54355135    -0.82600
C481        C  0.22203082  0.37021287  0.52925052     0.98400
C482        C  0.15030602  0.39292652  0.53547292     1.04400
O483        O  0.20957055  0.39118666  0.52320561    -0.78200
C484        C  0.25428760  0.41546899  0.56496361     1.02700
Fe485      Fe  0.96254794  0.03420873  0.80059811     1.65800
Fe486      Fe  0.94530640  0.10870602  0.79868118     1.73200
Fe487      Fe  0.93936628  0.06251871  0.77316731     1.54400
O488        O  0.97664331  0.04372986  0.76885841    -0.82000
O489        O  0.90983947  0.11928795  0.78898788    -0.80300
O490        O  0.98282203  0.01387774  0.78549594    -0.84500
O491        O  0.92827574  0.00919038  0.79686170    -0.79300
O492        O  0.95445357  0.10535124  0.76768686    -0.81100
O493        O  0.92172719  0.09139421  0.81304837    -0.83900
C494        C  0.91813331  0.00281603  0.78623236     0.96900
C495        C  0.98840097  0.02145015  0.77423344     1.04300
O496        O  0.94897136  0.06855118  0.79077192    -1.12800
O497        O  0.98104882  0.10399644  0.80909006    -0.75300
O498        O  0.99757377  0.05774649  0.80458135    -0.78800
O499        O  0.92287018  0.01891727  0.77646295    -0.79400
C500        C  0.00054604  0.08480870  0.80877674     0.95800
O501        O  0.94439679  0.04870581  0.81733533    -0.77400
O502        O  0.96824356  0.12937672  0.78501368    -0.82600
C503        C  0.89474392  0.10602833  0.78092616     0.98400
C504        C  0.96630909  0.12767864  0.77317520     1.04400
O505        O  0.90132847  0.08088361  0.77575016    -0.78200
C506        C  0.92716295  0.06920109  0.82031313     1.02700
Fe507      Fe  0.77459260  0.04152757  0.94360992     1.65800
Fe508      Fe  0.79660026  0.11481132  0.94594972     1.73200
Fe509      Fe  0.80107944  0.06701130  0.97111796     1.54400
O510        O  0.76419147  0.04722063  0.97576256    -0.82000
O511        O  0.83265024  0.12415071  0.95542920    -0.80300
O512        O  0.75384240  0.02122449  0.95852623    -0.84500
O513        O  0.80721153  0.01387507  0.94681391    -0.79300
O514        O  0.78590440  0.10925942  0.97715635    -0.81100
O515        O  0.81857895  0.09634512  0.93124904    -0.83900
C516        C  0.81948484  0.00762241  0.95696023     0.96900
C517        C  0.75061142  0.02660487  0.97014541     1.04300
O518        O  0.79080918  0.07448070  0.95364663    -1.12800
O519        O  0.76065380  0.11258354  0.93570262    -0.75300
O520        O  0.74106707  0.06744299  0.93988272    -0.78800
O521        O  0.81737756  0.02402652  0.96683744    -0.79400
C522        C  0.74020963  0.09456524  0.93555816     0.95800
O523        O  0.79261821  0.05583419  0.92690589    -0.77400
O524        O  0.77530486  0.13613993  0.95999280    -0.82600
C525        C  0.84676781  0.11097741  0.96381843     0.98400
C526        C  0.77576402  0.13284588  0.97183701     1.04400
O527        O  0.83929656  0.08594541  0.96889269    -0.78200
C528        C  0.81090109  0.07518149  0.92384755     1.02700
Fe529      Fe  0.97184561  0.72210299  0.94861626     1.65800
Fe530      Fe  0.95130470  0.64804886  0.95097844     1.73200
Fe531      Fe  0.94863857  0.69449123  0.97645471     1.54400
O532        O  0.98644170  0.71191793  0.98011620    -0.82000
O533        O  0.91613176  0.63861512  0.96126994    -0.80300
O534        O  0.99526578  0.74043571  0.96327318    -0.84500
O535        O  0.93982585  0.74962877  0.95328389    -0.79300
O536        O  0.96324681  0.65165328  0.98182329    -0.81100
O537        O  0.92766704  0.66628431  0.93690947    -0.83900
C538        C  0.92921317  0.75521723  0.96388659     0.96900
C539        C  0.00008995  0.73257121  0.97456937     1.04300
O540        O  0.95713449  0.68825765  0.95869561    -1.12800
O541        O  0.98628083  0.65081600  0.93999896    -0.75300
O542        O  0.00505784  0.69667374  0.94337201    -0.78800
O543        O  0.93301782  0.73831090  0.97347343    -0.79400
C544        C  0.00643639  0.66921860  0.93945086     0.95800
O545        O  0.95031310  0.70932612  0.93248487    -0.77400
O546        O  0.97449638  0.62679653  0.96432706    -0.82600
C547        C  0.90227285  0.65212352  0.96970189     0.98400
C548        C  0.97429905  0.62917439  0.97618029     1.04400
O549        O  0.90999058  0.67716021  0.97463860    -0.78200
C550        C  0.93237188  0.68913919  0.92981028     1.02700
Fe551      Fe  0.77622388  0.71101450  0.80806532     1.65800
Fe552      Fe  0.79368591  0.63638889  0.80505803     1.73200
Fe553      Fe  0.80101209  0.68478383  0.78037564     1.54400
O554        O  0.76386452  0.70354902  0.77627555    -0.82000
O555        O  0.82908719  0.62614402  0.79516187    -0.80300
O556        O  0.75504814  0.73148313  0.79325435    -0.84500
O557        O  0.80958466  0.73774062  0.80449138    -0.79300
O558        O  0.78604724  0.64276849  0.77418248    -0.81100
O559        O  0.81664627  0.65217543  0.81985635    -0.83900
C560        C  0.82067454  0.74431829  0.79407825     0.96900
C561        C  0.75049223  0.72422985  0.78187862     1.04300
O562        O  0.79057232  0.67746464  0.79784257    -1.12800
O563        O  0.75811389  0.63986696  0.81551873    -0.75300
O564        O  0.74156289  0.68658864  0.81215243    -0.78800
O565        O  0.81737418  0.72802975  0.78426538    -0.79400
C566        C  0.73873796  0.65908623  0.81586609     0.95800
O567        O  0.79549936  0.69589739  0.82442958    -0.77400
O568        O  0.77085995  0.61746566  0.79096469    -0.82600
C569        C  0.84444684  0.63934407  0.78715409     0.98400
C570        C  0.77361476  0.62017828  0.77918734     1.04400
O571        O  0.83896530  0.66564575  0.78266766    -0.78200
C572        C  0.81201400  0.67447606  0.82722299     1.02700
Fe573      Fe  0.02916571  0.28561781  0.05099794     1.65800
Fe574      Fe  0.04471347  0.36113847  0.05103446     1.73200
Fe575      Fe  0.05534372  0.31865657  0.02486823     1.54400
O576        O  0.07268755  0.27549748  0.02766484    -0.82000
O577        O  0.02285755  0.38265467  0.03726683    -0.80300
O578        O  0.06415755  0.26204691  0.04748612    -0.84500
O579        O  0.01089637  0.26662154  0.03502661    -0.79300
O580        O  0.09246431  0.33883014  0.02870044    -0.81100
O581        O  0.00806757  0.35350017  0.06060921    -0.83900
C582        C  0.00693601  0.27557675  0.02380109     0.96900
C583        C  0.07595181  0.25771405  0.03704868     1.04300
O584        O  0.04314101  0.32186212  0.04225527    -1.12800
O585        O  0.06728295  0.34260395  0.06539197    -0.75300
O586        O  0.04522302  0.29848874  0.06840192    -0.78800
O587        O  0.01925778  0.29871706  0.01924983    -0.79400
C588        C  0.06182177  0.31917211  0.07201773     0.95800
O589        O  0.99330755  0.30715878  0.05489869    -0.77400
O590        O  0.08073344  0.37506484  0.04236066    -0.82600
C591        C  0.02674881  0.38262269  0.02549339     0.98400
C592        C  0.09715433  0.36404493  0.03431007     1.04400
O593        O  0.03968345  0.36132080  0.01992495    -0.78200
C594        C  0.98932320  0.33325192  0.05982798     1.02700
Fe595      Fe  0.21887230  0.29044939  0.19399604     1.65800
Fe596      Fe  0.19985497  0.36518438  0.19527237     1.73200
Fe597      Fe  0.19386198  0.31991052  0.22128534     1.54400
O598        O  0.17506928  0.27783541  0.21784822    -0.82000
O599        O  0.22140573  0.38750807  0.20901026    -0.80300
O600        O  0.18622318  0.26275964  0.19841662    -0.84500
O601        O  0.24017029  0.27188531  0.20881423    -0.79300
O602        O  0.15669454  0.34117321  0.21925781    -0.81100
O603        O  0.23611622  0.36135942  0.18526936    -0.83900
C604        C  0.24317307  0.27731202  0.22040547     0.96900
C605        C  0.17335620  0.25913453  0.20868209     1.04300
O606        O  0.20399399  0.32512735  0.20358309    -1.12800
O607        O  0.17751392  0.34649876  0.18073692    -0.75300
O608        O  0.19979029  0.30295242  0.17739242    -0.78800
O609        O  0.22966145  0.29792442  0.22602348    -0.79400
C610        C  0.18296859  0.32336480  0.17395875     0.95800
O611        O  0.25313531  0.31521190  0.18940201    -0.77400
O612        O  0.16396931  0.37640528  0.20451195    -0.82600
C613        C  0.22116048  0.38505232  0.22087861     0.98400
C614        C  0.14998763  0.36557483  0.21354492     1.04400
O615        O  0.21124190  0.36171105  0.22653478    -0.78200
C616        C  0.25582737  0.34253567  0.18543456     1.02700
Fe617      Fe  0.28072510  0.72075725  0.30297795     1.65800
Fe618      Fe  0.29211618  0.64441951  0.30158487     1.73200
Fe619      Fe  0.30253977  0.68884976  0.27585555     1.54400
O620        O  0.26708017  0.71087327  0.27136742    -0.82000
O621        O  0.32715354  0.62996025  0.29232309    -0.80300
O622        O  0.26245989  0.74235574  0.28759671    -0.84500
O623        O  0.31684221  0.74215658  0.29922284    -0.79300
O624        O  0.28415908  0.64792658  0.27045563    -0.81100
O625        O  0.31627386  0.66050354  0.31611365    -0.83900
C626        C  0.32744626  0.74712425  0.28856076     0.96900
C627        C  0.25678059  0.73445979  0.27640077     1.04300
O628        O  0.29188613  0.68455610  0.29344013    -1.12800
O629        O  0.25616095  0.65301232  0.31144090    -0.75300
O630        O  0.24401185  0.70111336  0.30705564    -0.78800
O631        O  0.32206105  0.73088358  0.27892738    -0.79400
C632        C  0.23857432  0.67444705  0.31116540     0.95800
O633        O  0.29718466  0.70566942  0.32000439    -0.77400
O634        O  0.26856446  0.62489380  0.28771054    -0.82600
C635        C  0.34321415  0.64079567  0.28402186     0.98400
C636        C  0.27070966  0.62666002  0.27585176     1.04400
O637        O  0.33886546  0.66631376  0.27858446    -0.78200
C638        C  0.31299005  0.68387312  0.32307223     1.02700
Fe639      Fe  0.46619979  0.71619330  0.44595568     1.65800
Fe640      Fe  0.44767602  0.64161150  0.44858438     1.73200
Fe641      Fe  0.44468480  0.68800062  0.47416732     1.54400
O642        O  0.48169103  0.70849332  0.47768810    -0.82000
O643        O  0.41354493  0.63048449  0.45917467    -0.80300
O644        O  0.48961071  0.73530822  0.46028830    -0.84500
O645        O  0.43432701  0.74354802  0.45103925    -0.79300
O646        O  0.46162895  0.64586380  0.47942610    -0.81100
O647        O  0.42269037  0.65907647  0.43475932    -0.83900
C648        C  0.42392400  0.74876593  0.46173388     0.96900
C649        C  0.49437410  0.72940554  0.47177167     1.04300
O650        O  0.45270897  0.68204586  0.45628518    -1.12800
O651        O  0.48190362  0.64537770  0.43723845    -0.75300
O652        O  0.49972941  0.69174808  0.44040303    -0.78800
O653        O  0.42702608  0.73089279  0.47110682    -0.79400
C654        C  0.50156677  0.66433906  0.43650867     0.95800
O655        O  0.44421942  0.70265043  0.42999628    -0.77400
O656        O  0.47212295  0.62133725  0.46171253    -0.82600
C657        C  0.39966998  0.64294756  0.46783254     0.98400
C658        C  0.47278022  0.62368501  0.47357246     1.04400
O659        O  0.40667565  0.66819224  0.47283274    -0.78200
C660        C  0.42657231  0.68194653  0.42754658     1.02700
Fe661      Fe  0.71562886  0.28682463  0.69735827     1.65800
Fe662      Fe  0.69764146  0.36137330  0.69817209     1.73200
Fe663      Fe  0.68932933  0.31714287  0.72407335     1.54400
O664        O  0.67245493  0.27394970  0.72092881    -0.82000
O665        O  0.72027485  0.38252789  0.71185857    -0.80300
O666        O  0.68211941  0.26024414  0.70117794    -0.84500
O667        O  0.73510057  0.26798732  0.71286074    -0.79300
O668        O  0.65176813  0.33661630  0.72099831    -0.81100
O669        O  0.73342995  0.35593340  0.68791916    -0.83900
C670        C  0.73867490  0.27582810  0.72422251     0.96900
C671        C  0.67055704  0.25552035  0.71168709     1.04300
O672        O  0.70057018  0.32166085  0.70657200    -1.12800
O673        O  0.67460565  0.34274642  0.68385412    -0.75300
O674        O  0.69821967  0.30013821  0.68022991    -0.78800
O675        O  0.72574113  0.29776808  0.72921162    -0.79400
C676        C  0.68102160  0.32033929  0.67683745     0.95800
O677        O  0.75066115  0.31087138  0.69350650    -0.77400
O678        O  0.66232339  0.37389035  0.70757546    -0.82600
C679        C  0.71793749  0.38118373  0.72371467     0.98400
C680        C  0.64669761  0.36224054  0.71583875     1.04400
O681        O  0.70521793  0.35954237  0.72926264    -0.78200
C682        C  0.75331136  0.33746624  0.68879606     1.02700
Fe683      Fe  0.52838737  0.28496982  0.55336603     1.65800
Fe684      Fe  0.53983879  0.36134168  0.55282820     1.73200
Fe685      Fe  0.54998353  0.31891222  0.52652623     1.54400
O686        O  0.56903491  0.27648770  0.52883429    -0.82000
O687        O  0.51521559  0.38042651  0.53948370    -0.80300
O688        O  0.56391114  0.26304205  0.54888879    -0.84500
O689        O  0.50882499  0.26538286  0.53794387    -0.79300
O690        O  0.58671331  0.34072450  0.52978703    -0.81100
O691        O  0.50464160  0.35189009  0.56321644    -0.83900
C692        C  0.50320715  0.27340663  0.52674973     0.96900
C693        C  0.57425130  0.25898004  0.53810449     1.04300
O694        O  0.53948933  0.32174821  0.54421370    -1.12800
O695        O  0.56476327  0.34509912  0.56701052    -0.75300
O696        O  0.54625070  0.29901874  0.57019329    -0.78800
O697        O  0.51416572  0.29679351  0.52163581    -0.79400
C698        C  0.56153403  0.32112067  0.57367297     0.95800
O699        O  0.49197918  0.30430105  0.55827515    -0.77400
O700        O  0.57405000  0.37741633  0.54311806    -0.82600
C701        C  0.51881727  0.38141334  0.52771086     0.98400
C702        C  0.59044821  0.36666775  0.53498085     1.04400
O703        O  0.53253867  0.36117140  0.52185910    -0.78200
C704        C  0.48691461  0.33045984  0.56292302     1.02700
C705        C  0.66887191  0.31834347  0.66410219    -0.03500
C706        C  0.68438885  0.30771737  0.65392077    -0.06100
C707        C  0.67380359  0.30809868  0.64170910    -0.21200
C708        C  0.64717441  0.31819127  0.63943160     0.24500
C709        C  0.63144391  0.32829137  0.64966769    -0.18700
C710        C  0.64228722  0.32865666  0.66183971    -0.08700
C711        C  0.63686088  0.31935452  0.62625904    -0.19000
C712        C  0.61048973  0.31488628  0.62328675    -0.23800
C713        C  0.59968265  0.31572862  0.61020820     0.26600
C714        C  0.57678005  0.29778523  0.60729060    -0.20600
C715        C  0.56496911  0.29903876  0.59536334    -0.10200
C716        C  0.57532475  0.31889598  0.58608506    -0.10700
C717        C  0.59827641  0.33699151  0.58898083    -0.03700
C718        C  0.61048418  0.33524038  0.60088292    -0.18800
H719        H  0.70506667  0.30002652  0.65535041     0.10300
H720        H  0.68645559  0.30046298  0.63400713     0.10400
H721        H  0.61105916  0.33685477  0.64824235     0.10000
H722        H  0.62992250  0.33712248  0.66949339     0.11100
H723        H  0.65163304  0.32245302  0.61877908     0.11200
H724        H  0.59628044  0.30876758  0.63069461     0.13100
H725        H  0.56791246  0.28274551  0.61430232     0.09700
H726        H  0.54721775  0.28495340  0.59351291     0.11700
H727        H  0.60673110  0.35256255  0.58206012     0.08400
H728        H  0.62780011  0.34985597  0.60288464     0.11100
C729        C  0.48594191  0.59852323  0.48067335    -0.03500
C730        C  0.50213277  0.57701424  0.47429438    -0.06100
C731        C  0.51102409  0.55043462  0.48031391    -0.21200
C732        C  0.50355990  0.54445854  0.49275932     0.24500
C733        C  0.48895881  0.56684342  0.49945838    -0.18700
C734        C  0.48030650  0.59374239  0.49346635    -0.08700
C735        C  0.51026656  0.51406481  0.49818542    -0.19000
C736        C  0.49324196  0.49899208  0.50597186    -0.23800
C737        C  0.49811074  0.46728138  0.51060486     0.26600
C738        C  0.48541803  0.45793672  0.52176244    -0.20600
C739        C  0.49067938  0.42905949  0.52689947    -0.10200
C740        C  0.50859939  0.40868935  0.52090627    -0.10700
C741        C  0.51976846  0.41712609  0.50925527    -0.03700
C742        C  0.51460961  0.44614873  0.50414460    -0.18800
H743        H  0.50716065  0.58016353  0.46447855     0.10300
H744        H  0.52259156  0.53373019  0.47502822     0.10400
H745        H  0.48371299  0.56328985  0.50922033     0.10000
H746        H  0.46811413  0.61000479  0.49867047     0.11100
H747        H  0.52862003  0.50298922  0.49485929     0.11200
H748        H  0.47486310  0.51033494  0.50915548     0.13100
H749        H  0.47215831  0.47349174  0.52678380     0.09700
H750        H  0.48155976  0.42319055  0.53584354     0.11700
H751        H  0.53357804  0.40192535  0.50437891     0.08400
H752        H  0.52380384  0.45194552  0.49522964     0.11100
C753        C  0.41018960  0.68431570  0.41580126    -0.03500
C754        C  0.38571450  0.66775960  0.41449027    -0.06100
C755        C  0.37045544  0.66960141  0.40340799    -0.21200
C756        C  0.37955329  0.68734484  0.39320596     0.24500
C757        C  0.40397830  0.70403969  0.39449673    -0.18700
C758        C  0.41898738  0.70270759  0.40569229    -0.08700
C759        C  0.36283072  0.68840995  0.38149934    -0.19000
C760        C  0.37372550  0.69074804  0.36989822    -0.23800
C761        C  0.35739853  0.68916369  0.35808680     0.26600
C762        C  0.36907426  0.67588846  0.34735824    -0.20600
C763        C  0.35450047  0.67378676  0.33609429    -0.10200
C764        C  0.32814454  0.68584786  0.33513684    -0.10700
C765        C  0.31663646  0.69993150  0.34576635    -0.03700
C766        C  0.33096217  0.70125831  0.35716803    -0.18800
H767        H  0.37821854  0.65350444  0.42208521     0.10300
H768        H  0.35163891  0.65668403  0.40272624     0.10400
H769        H  0.41131627  0.71847647  0.38693489     0.10000
H770        H  0.43770928  0.71578302  0.40636990     0.11100
H771        H  0.34107064  0.68466460  0.38242213     0.11200
H772        H  0.39571028  0.69134899  0.36894388     0.13100
H773        H  0.38947702  0.66668299  0.34774404     0.09700
H774        H  0.36403573  0.66313639  0.32804315     0.11700
H775        H  0.29639490  0.70954151  0.34530014     0.08400
H776        H  0.32154943  0.71223489  0.36516779     0.11100
C777        C  0.25864856  0.60193953  0.26804637    -0.03500
C778        C  0.25958409  0.60358956  0.25486593    -0.06100
C779        C  0.25276794  0.57798546  0.24756781    -0.21200
C780        C  0.24523793  0.55018088  0.25329298     0.24500
C781        C  0.24211961  0.54933867  0.26641243    -0.18700
C782        C  0.24879360  0.57491598  0.27369889    -0.08700
C783        C  0.24143665  0.52235916  0.24540327    -0.19000
C784        C  0.24565813  0.49373175  0.24980800    -0.23800
C785        C  0.24164155  0.46557637  0.24221042     0.26600
C786        C  0.23347637  0.43849267  0.24830753    -0.20600
C787        C  0.22805653  0.41180446  0.24146392    -0.10200
C788        C  0.23108876  0.41153010  0.22835582    -0.10700
C789        C  0.24074595  0.43826332  0.22232990    -0.03700
C790        C  0.24592936  0.46503765  0.22917775    -0.18800
H791        H  0.26666482  0.62423615  0.25019623     0.10300
H792        H  0.25465780  0.57946580  0.23745837     0.10400
H793        H  0.23498846  0.52882217  0.27113322     0.10000
H794        H  0.24736448  0.57299718  0.28380797     0.11100
H795        H  0.23588415  0.52569177  0.23564438     0.11200
H796        H  0.25142167  0.49043245  0.25953403     0.13100
H797        H  0.23037247  0.43828215  0.25837130     0.09700
H798        H  0.22060491  0.39171971  0.24641071     0.11700
H799        H  0.24350408  0.43884019  0.21225078     0.08400
H800        H  0.25315757  0.48522881  0.22424609     0.11100
C801        C  0.16991209  0.32021318  0.16146885    -0.03500
C802        C  0.18085272  0.30011103  0.15246911    -0.06100
C803        C  0.16953357  0.29803385  0.14047310    -0.21200
C804        C  0.14662832  0.31538901  0.13728180     0.24500
C805        C  0.13546100  0.33533804  0.14627502    -0.18700
C806        C  0.14709813  0.33786488  0.15822372    -0.08700
C807        C  0.13574013  0.31345166  0.12431716    -0.19000
C808        C  0.10906462  0.31575129  0.12169327    -0.23800
C809        C  0.09814437  0.31471542  0.10870065     0.26600
C810        C  0.07176433  0.30332738  0.10667107    -0.20600
C811        C  0.06031337  0.30370827  0.09465060    -0.10200
C812        C  0.07474614  0.31634972  0.08449230    -0.10700
C813        C  0.10115628  0.32771733  0.08650201    -0.03700
C814        C  0.11285436  0.32666469  0.09845678    -0.18800
H815        H  0.19857081  0.28639613  0.15460330     0.10300
H816        H  0.17864502  0.28274182  0.13366666     0.10400
H817        H  0.11818640  0.34958978  0.14398022     0.10000
H818        H  0.13829518  0.35369820  0.16490275     0.11100
H819        H  0.15001489  0.30859625  0.11680309     0.11200
H820        H  0.09457218  0.31743380  0.12935738     0.13100
H821        H  0.05994433  0.29425971  0.11442541     0.09700
H822        H  0.03981273  0.29508389  0.09337604     0.11700
H823        H  0.11268317  0.33762760  0.07882584     0.08400
H824        H  0.13300116  0.33624947  0.09973374     0.11100
C825        C  0.76345920  0.59509269  0.77109665    -0.03500
C826        C  0.76862510  0.59530196  0.75812248    -0.06100
C827        C  0.76254228  0.56954564  0.75082323    -0.21200
C828        C  0.75151622  0.54305675  0.75637433     0.24500
C829        C  0.74495316  0.54342795  0.76920187    -0.18700
C830        C  0.75087820  0.56917933  0.77648533    -0.08700
C831        C  0.74696630  0.51550743  0.74853286    -0.19000
C832        C  0.74858404  0.48674005  0.75313575    -0.23800
C833        C  0.74344529  0.45897583  0.74545070     0.26600
C834        C  0.73474280  0.43197327  0.75146180    -0.20600
C835        C  0.72752135  0.40609485  0.74445417    -0.10200
C836        C  0.72916440  0.40667635  0.73129040    -0.10700
C837        C  0.73955546  0.43307247  0.72534830    -0.03700
C838        C  0.74667519  0.45892375  0.73234570    -0.18800
H839        H  0.77821129  0.61493754  0.75367109     0.10300
H840        H  0.76734101  0.56990617  0.74090399     0.10400
H841        H  0.73536006  0.52383511  0.77366525     0.10000
H842        H  0.74631631  0.56839104  0.78642073     0.11100
H843        H  0.74276687  0.51929073  0.73867439     0.11200
H844        H  0.75292550  0.48327154  0.76301298     0.13100
H845        H  0.73257106  0.43127199  0.76156979     0.09700
H846        H  0.71986280  0.38599625  0.74933280     0.11700
H847        H  0.74141682  0.43416178  0.71523676     0.08400
H848        H  0.75450596  0.47879518  0.72740435     0.11100
C849        C  0.01754424  0.40951901  0.01817053    -0.03500
C850        C  0.02271079  0.41155078  0.00521839    -0.06100
C851        C  0.01800056  0.43897187  0.99875972    -0.21200
C852        C  0.00838993  0.46492607  0.00513855     0.24500
C853        C  0.00167286  0.46234807  0.01791664    -0.18700
C854        C  0.00624283  0.43496423  0.02435576    -0.08700
C855        C  0.00533199  0.49418038  0.99818584    -0.19000
C856        C  0.00674467  0.52191588  0.00375930    -0.23800
C857        C  0.00182285  0.55087269  0.99687179     0.26600
C858        C  0.98930468  0.57533122  0.00315241    -0.20600
C859        C  0.98145715  0.60161655  0.99657438    -0.10200
C860        C  0.98627891  0.60393809  0.98360761    -0.10700
C861        C  0.00073302  0.58040400  0.97755673    -0.03700
C862        C  0.00847096  0.55414546  0.98412183    -0.18800
H863        H  0.03128633  0.39233423  0.00015473     0.10300
H864        H  0.02279488  0.44024507  0.98884942     0.10400
H865        H  0.99301418  0.48142110  0.02301669     0.10000
H866        H  0.00174106  0.43412206  0.03429825     0.11100
H867        H  0.00201618  0.49266687  0.98813915     0.11200
H868        H  0.01002078  0.52356341  0.01379874     0.13100
H869        H  0.98441351  0.57347079  0.01303740     0.09700
H870        H  0.97057660  0.61945841  0.00153117     0.11700
H871        H  0.00532258  0.58179865  0.96763164     0.08400
H872        H  0.01920935  0.53625601  0.97914055     0.11100
C873        C  0.91673777  0.69200724  0.91789496    -0.03500
C874        C  0.92193455  0.71623251  0.90946569    -0.06100
C875        C  0.90795827  0.71812739  0.89804155    -0.21200
C876        C  0.88864397  0.69574838  0.89468003     0.24500
C877        C  0.88286400  0.67197500  0.90325545    -0.18700
C878        C  0.89677193  0.67011309  0.91468908    -0.08700
C879        C  0.87470591  0.69817497  0.88228114    -0.19000
C880        C  0.86450340  0.67365830  0.87609621    -0.23800
C881        C  0.85148731  0.67520296  0.86347069     0.26600
C882        C  0.85034009  0.64834019  0.85620640    -0.20600
C883        C  0.83795291  0.64831045  0.84440462    -0.10200
C884        C  0.82593340  0.67509244  0.83960743    -0.10700
C885        C  0.82675673  0.70198465  0.84691988    -0.03700
C886        C  0.83946455  0.70210054  0.85870354    -0.18800
H887        H  0.93702516  0.73361607  0.91162719     0.10300
H888        H  0.91261001  0.73688850  0.89169935     0.10400
H889        H  0.86744222  0.65489100  0.90124629     0.10000
H890        H  0.89194156  0.65134882  0.92099616     0.11100
H891        H  0.87445710  0.72057217  0.87781025     0.11200
H892        H  0.86709931  0.65094289  0.88010995     0.13100
H893        H  0.85916390  0.62721798  0.85966654     0.09700
H894        H  0.83743800  0.62709126  0.83911220     0.11700
H895        H  0.81754308  0.72295730  0.84353953     0.08400
H896        H  0.83926700  0.72308149  0.86412691     0.11100
C897        C  0.83586372  0.97929479  0.95729295    -0.03500
C898        C  0.84111039  0.96320655  0.94612566    -0.06100
C899        C  0.85400334  0.93480903  0.94643429    -0.21200
C900        C  0.86168404  0.92167528  0.95788719     0.24500
C901        C  0.85737386  0.93817022  0.96905357    -0.18700
C902        C  0.84458370  0.96677467  0.96874408    -0.08700
C903        C  0.87436623  0.89094890  0.95765536    -0.19000
C904        C  0.87364945  0.87108231  0.96733562    -0.23800
C905        C  0.88584407  0.84009585  0.96649974     0.26600
C906        C  0.89589758  0.82606781  0.97739339    -0.20600
C907        C  0.90915785  0.79775535  0.97669230    -0.10200
C908        C  0.91248558  0.78308155  0.96505947    -0.10700
C909        C  0.90113966  0.79637869  0.95428621    -0.03700
C910        C  0.88773837  0.82441835  0.95500458    -0.18800
H911        H  0.83480945  0.97227740  0.93712896     0.10300
H912        H  0.85739694  0.92269630  0.93769804     0.10400
H913        H  0.86386845  0.92919491  0.97801787     0.10000
H914        H  0.84090708  0.97868543  0.97749345     0.11100
H915        H  0.88399632  0.88421591  0.94892005     0.11200
H916        H  0.86445734  0.87769215  0.97618162     0.13100
H917        H  0.89427530  0.83750659  0.98638286     0.09700
H918        H  0.91768009  0.78794864  0.98514967     0.11700
H919        H  0.90289775  0.78523963  0.94523935     0.08400
H920        H  0.87901383  0.83372868  0.94651251     0.11100
C921        C  0.98786167  0.25809656  0.01560457    -0.03500
C922        C  0.97800209  0.27123744  0.00445606    -0.06100
C923        C  0.96088829  0.25453794  0.99646300    -0.21200
C924        C  0.95352321  0.22407694  0.99924107     0.24500
C925        C  0.96321847  0.21090026  0.01045396    -0.18700
C926        C  0.98012034  0.22776634  0.01854175    -0.08700
C927        C  0.93464390  0.20758829  0.99054029    -0.19000
C928        C  0.93275966  0.17668120  0.98970412    -0.23800
C929        C  0.91265519  0.15981360  0.98169118     0.26600
C930        C  0.90821762  0.12843956  0.98407090    -0.20600
C931        C  0.88798408  0.11204274  0.97769456    -0.10200
C932        C  0.87167261  0.12652671  0.96865031    -0.10700
C933        C  0.87720231  0.15744292  0.96566705    -0.03700
C934        C  0.89743696  0.17391422  0.97208901    -0.18800
H935        H  0.98344738  0.29455441  0.00191201     0.10300
H936        H  0.95351686  0.26544138  0.98799132     0.10400
H937        H  0.95742273  0.18784627  0.01316754     0.10000
H938        H  0.98737623  0.21691230  0.02704057     0.11100
H939        H  0.92194474  0.22184855  0.98464983     0.11200
H940        H  0.94596904  0.16274999  0.99551236     0.13100
H941        H  0.91978457  0.11675591  0.99126451     0.09700
H942        H  0.88441105  0.08827414  0.98023421     0.11700
H943        H  0.86508608  0.16937158  0.95874474     0.08400
H944        H  0.90061977  0.19770484  0.96958330     0.11100
C945        C  0.83689218  0.77290261  0.79332235    -0.03500
C946        C  0.84380821  0.78877093  0.80434955    -0.06100
C947        C  0.85616277  0.81758366  0.80372374    -0.21200
C948        C  0.86149533  0.83138068  0.79209744     0.24500
C949        C  0.85567948  0.81509197  0.78103061    -0.18700
C950        C  0.84352956  0.78602022  0.78165014    -0.08700
C951        C  0.87290368  0.86283209  0.79202283    -0.19000
C952        C  0.86807936  0.88347520  0.78289442    -0.23800
C953        C  0.87807416  0.91554960  0.78375075     0.26600
C954        C  0.88479399  0.93164637  0.77276242    -0.20600
C955        C  0.89655041  0.96093092  0.77346226    -0.10200
C956        C  0.90156660  0.97456329  0.78519191    -0.10700
C957        C  0.89296577  0.95929008  0.79611677    -0.03700
C958        C  0.88121025  0.93020220  0.79540897    -0.18800
H959        H  0.83911726  0.77924261  0.81349359     0.10300
H960        H  0.86075073  0.82959786  0.81237064     0.10400
H961        H  0.86035516  0.82474137  0.77191870     0.10000
H962        H  0.83852667  0.77429499  0.77299426     0.11100
H963        H  0.88452309  0.86965447  0.80021975     0.11200
H964        H  0.85684271  0.87682887  0.77456530     0.13100
H965        H  0.88200877  0.92103013  0.76366396     0.09700
H966        H  0.90282888  0.97223435  0.76487471     0.11700
H967        H  0.89600858  0.96945449  0.80528290     0.08400
H968        H  0.87491310  0.91914540  0.80403727     0.11100
C969        C  0.91367209  0.06765487  0.83280953    -0.03500
C970        C  0.92352360  0.04778966  0.84214806    -0.06100
C971        C  0.91224431  0.04785798  0.85420618    -0.21200
C972        C  0.89045143  0.06722021  0.85715970     0.24500
C973        C  0.88008401  0.08664958  0.84778496    -0.18700
C974        C  0.89168422  0.08698930  0.83575791    -0.08700
C975        C  0.88011713  0.06787964  0.87026981    -0.19000
C976        C  0.85381718  0.07241616  0.87318390    -0.23800
C977        C  0.84380693  0.07223821  0.88634302     0.26600
C978        C  0.81842183  0.05902776  0.88905238    -0.20600
C979        C  0.80819942  0.05917727  0.90130811    -0.10200
C980        C  0.82279798  0.07339300  0.91106777    -0.10700
C981        C  0.84816706  0.08682312  0.90833612    -0.03700
C982        C  0.85869212  0.08600538  0.89611381    -0.18800
H983        H  0.94047618  0.03270464  0.84024555     0.10300
H984        H  0.92064774  0.03278787  0.86128407     0.10400
H985        H  0.86361867  0.10228418  0.84984439     0.10000
H986        H  0.88363735  0.10265523  0.82881307     0.11100
H987        H  0.89440277  0.06273734  0.87773810     0.11200
H988        H  0.83892999  0.07436817  0.86571344     0.13100
H989        H  0.80653696  0.04843889  0.88166987     0.09700
H990        H  0.78848665  0.04884790  0.90307850     0.11700
H991        H  0.85983593  0.09800240  0.91564238     0.08400
H992        H  0.87813314  0.09685472  0.89424433     0.11100
C993        C  0.75784033  0.25806888  0.73206249    -0.03500
C994        C  0.76860905  0.27069889  0.74313052    -0.06100
C995        C  0.78542706  0.25320889  0.75089669    -0.21200
C996        C  0.79130388  0.22254665  0.74793667     0.24500
C997        C  0.78087117  0.21002166  0.73676027    -0.18700
C998        C  0.76438799  0.22765242  0.72889659    -0.08700
C999        C  0.80940888  0.20481941  0.75637806    -0.19000
C1000       C  0.80823967  0.17398618  0.75751388    -0.23800
C1001       C  0.82801868  0.15584459  0.76498675     0.26600
C1002       C  0.83232718  0.12500617  0.76175179    -0.20600
C1003       C  0.85295548  0.10808249  0.76748623    -0.10200
C1004       C  0.86960121  0.12159330  0.77669231    -0.10700
C1005       C  0.86389268  0.15171816  0.78061426    -0.03700
C1006       C  0.84330164  0.16866102  0.77485027    -0.18800
H1007       H  0.76401772  0.29411415  0.74578882     0.10300
H1008       H  0.79355468  0.26351961  0.75935232     0.10400
H1009       H  0.78571582  0.18681351  0.73394521     0.10000
H1010       H  0.75634263  0.21726312  0.72044343     0.11100
H1011       H  0.82423328  0.21788045  0.76170455     0.11200
H1012       H  0.79318465  0.16122140  0.75218228     0.13100
H1013       H  0.82054526  0.11438740  0.75433816     0.09700
H1014       H  0.85661674  0.08485392  0.76429493     0.11700
H1015       H  0.87610487  0.16274020  0.78777092     0.08400
H1016       H  0.83984810  0.19190043  0.77802260     0.11100
C1017       C  0.37567809  0.62626543  0.47294027    -0.03500
C1018       C  0.35886654  0.64001479  0.48199154    -0.06100
C1019       C  0.33930417  0.62263132  0.48840922    -0.21200
C1020       C  0.33634913  0.59105025  0.48608827     0.24500
C1021       C  0.35201768  0.57765606  0.47650478    -0.18700
C1022       C  0.37144079  0.59509267  0.47001000    -0.08700
C1023       C  0.31721613  0.57298679  0.49406645    -0.19000
C1024       C  0.31949956  0.54251837  0.49611980    -0.23800
C1025       C  0.30132713  0.52522070  0.50479891     0.26600
C1026       C  0.29621794  0.49397717  0.50251580    -0.20600
C1027       C  0.27871889  0.47719314  0.51032685    -0.10200
C1028       C  0.26652352  0.49114686  0.52079703    -0.10700
C1029       C  0.27252464  0.52207930  0.52338206    -0.03700
C1030       C  0.28965861  0.53898939  0.51545453    -0.18800
H1031       H  0.36147552  0.66397767  0.48445371     0.10300
H1032       H  0.32721097  0.63365036  0.49560014     0.10400
H1033       H  0.34965546  0.55368416  0.47407338     0.10000
H1034       H  0.38394219  0.58376103  0.46306022     0.11100
H1035       H  0.30141785  0.58568839  0.49889879     0.11200
H1036       H  0.33504775  0.52948293  0.49128304     0.13100
H1037       H  0.30529019  0.48271027  0.49448662     0.09700
H1038       H  0.27455987  0.45335163  0.50812365     0.11700
H1039       H  0.26336848  0.53347970  0.53135537     0.08400
H1040       H  0.29387128  0.56272477  0.51776715     0.11100
C1041       C  0.28081945  0.40603754  0.57025864    -0.03500
C1042       C  0.30101125  0.42820152  0.57266522    -0.06100
C1043       C  0.32721546  0.41936755  0.57609673    -0.21200
C1044       C  0.33404184  0.38820667  0.57700684     0.24500
C1045       C  0.31345362  0.36597448  0.57532028    -0.18700
C1046       C  0.28708929  0.37484713  0.57198283    -0.08700
C1047       C  0.36312843  0.38018934  0.57890687    -0.19000
C1048       C  0.37418004  0.35394498  0.57461627    -0.23800
C1049       C  0.40396899  0.34830119  0.57368252     0.26600
C1050       C  0.41272851  0.31825720  0.57126420    -0.20600
C1051       C  0.43989831  0.31229621  0.56835975    -0.10200
C1052       C  0.45907563  0.33631639  0.56775651    -0.10700
C1053       C  0.45065048  0.36623081  0.57077196    -0.03700
C1054       C  0.42339718  0.37222294  0.57365975    -0.18800
H1055       H  0.29678123  0.45244203  0.57155260     0.10300
H1056       H  0.34255577  0.43697608  0.57747319     0.10400
H1057       H  0.31764027  0.34174500  0.57636299     0.10000
H1058       H  0.27192819  0.35723340  0.57027048     0.11100
H1059       H  0.37616475  0.39788529  0.58281406     0.11200
H1060       H  0.36102877  0.33634538  0.57070344     0.13100
H1061       H  0.39827866  0.29940132  0.57118031     0.09700
H1062       H  0.44565688  0.28893449  0.56615583     0.11700
H1063       H  0.46484790  0.38528741  0.57033466     0.08400
H1064       H  0.41760710  0.39583656  0.57518217     0.11100
C1065       C  0.97683900  0.15374009  0.76564432    -0.03500
C1066       C  0.97029338  0.15652580  0.75286711    -0.06100
C1067       C  0.97647983  0.18353252  0.74632516    -0.21200
C1068       C  0.98908990  0.20831030  0.75244100     0.24500
C1069       C  0.99731033  0.20472358  0.76498021    -0.18700
C1070       C  0.99116578  0.17777796  0.77151300    -0.08700
C1071       C  0.99308943  0.23756514  0.74551678    -0.19000
C1072       C  0.99426314  0.26513107  0.75124933    -0.23800
C1073       C  0.99844351  0.29437983  0.74436960     0.26600
C1074       C  0.01174133  0.31871897  0.75045636    -0.20600
C1075       C  0.01797221  0.34578535  0.74398495    -0.10200
C1076       C  0.01080391  0.34908631  0.73130136    -0.10700
C1077       C  0.99586530  0.32547736  0.72546252    -0.03700
C1078       C  0.98967956  0.29842045  0.73193354    -0.18800
H1079       H  0.95936909  0.13839426  0.74805225     0.10300
H1080       H  0.97040894  0.18554406  0.73659668     0.10400
H1081       H  0.00824304  0.22273604  0.76984123     0.10000
H1082       H  0.99694356  0.17618556  0.78129038     0.11100
H1083       H  0.99429303  0.23627105  0.73536524     0.11200
H1084       H  0.99303680  0.26647887  0.76139586     0.13100
H1085       H  0.01831631  0.31629780  0.76010056     0.09700
H1086       H  0.02950339  0.36350088  0.74875561     0.11700
H1087       H  0.98968871  0.32747993  0.71574811     0.08400
H1088       H  0.97832531  0.28065719  0.72712341     0.11100
C1089       C  0.16320495  0.43807028  0.58554258    -0.03500
C1090       C  0.13651958  0.42641731  0.58610250    -0.06100
C1091       C  0.12119241  0.42886002  0.59712265    -0.21200
C1092       C  0.13248187  0.44212066  0.60792437     0.24500
C1093       C  0.15909680  0.45405109  0.60735068    -0.18700
C1094       C  0.17421476  0.45228394  0.59622428    -0.08700
C1095       C  0.11601589  0.44340756  0.61961827    -0.19000
C1096       C  0.12702256  0.43927686  0.63105331    -0.23800
C1097       C  0.11072998  0.43828177  0.64280872     0.26600
C1098       C  0.11934521  0.41928104  0.65264807    -0.20600
C1099       C  0.10466293  0.41770202  0.66387803    -0.10200
C1100       C  0.08126690  0.43564171  0.66565297    -0.10700
C1101       C  0.07296337  0.45525566  0.65588635    -0.03700
C1102       C  0.08743753  0.45642754  0.64454594    -0.18800
H1103       H  0.12745679  0.41550919  0.57798236     0.10300
H1104       H  0.10067195  0.41972523  0.59730265     0.10400
H1105       H  0.16814284  0.46498324  0.61546061     0.10000
H1106       H  0.19473296  0.46140383  0.59605499     0.11100
H1107       H  0.09409429  0.44528908  0.61871258     0.11200
H1108       H  0.14855695  0.43412518  0.63176244     0.13100
H1109       H  0.13733897  0.40526631  0.65157578     0.09700
H1110       H  0.11174632  0.40248550  0.67120796     0.11700
H1111       H  0.05509177  0.46944915  0.65695039     0.08400
H1112       H  0.08063305  0.47185513  0.63723852     0.11100
C1113       C  0.86819008  0.62216591  0.78212030    -0.03500
C1114       C  0.87487941  0.59314248  0.78701105    -0.06100
C1115       C  0.89392286  0.57447062  0.78096821    -0.21200
C1116       C  0.90647462  0.58402870  0.76978281     0.24500
C1117       C  0.90085098  0.61366452  0.76519406    -0.18700
C1118       C  0.88194974  0.63250343  0.77130584    -0.08700
C1119       C  0.92518022  0.56240435  0.76322953    -0.19000
C1120       C  0.92905560  0.56236328  0.75066924    -0.23800
C1121       C  0.94660640  0.54009649  0.74367486     0.26600
C1122       C  0.95054015  0.54462755  0.73073254    -0.20600
C1123       C  0.96726083  0.52505408  0.72374082    -0.10200
C1124       C  0.98054309  0.50022780  0.72949895    -0.10700
C1125       C  0.97604287  0.49511344  0.74237568    -0.03700
C1126       C  0.95931857  0.51469324  0.74937647    -0.18800
H1127       H  0.86470762  0.58434526  0.79529078     0.10300
H1128       H  0.89811616  0.55193746  0.78480981     0.10400
H1129       H  0.91081819  0.62229531  0.75684503     0.10000
H1130       H  0.87733943  0.65469743  0.76725619     0.11100
H1131       H  0.93472865  0.54509516  0.76901188     0.11200
H1132       H  0.91845989  0.57935568  0.74507066     0.13100
H1133       H  0.94092997  0.56375126  0.72600599     0.09700
H1134       H  0.97020891  0.52979708  0.71385841     0.11700
H1135       H  0.98586642  0.47620684  0.74714426     0.08400
H1136       H  0.95670664  0.50965542  0.75921797     0.11100
C1137       C  0.78057213  0.34769987  0.68451737    -0.03500
C1138       C  0.78382544  0.37544988  0.67791999    -0.06100
C1139       C  0.80978704  0.38666634  0.67505816    -0.21200
C1140       C  0.83306498  0.37038899  0.67866256     0.24500
C1141       C  0.82980171  0.34225991  0.68503537    -0.18700
C1142       C  0.80385575  0.33098955  0.68785244    -0.08700
C1143       C  0.86020884  0.38486344  0.67678363    -0.19000
C1144       C  0.88363771  0.36894060  0.67684075    -0.23800
C1145       C  0.91114689  0.38328121  0.67744590     0.26600
C1146       C  0.93396685  0.36436592  0.67592789    -0.20600
C1147       C  0.96012105  0.37547917  0.67841859    -0.10200
C1148       C  0.96403112  0.40584568  0.68251799    -0.10700
C1149       C  0.94138098  0.42532977  0.68330651    -0.03700
C1150       C  0.91524282  0.41420435  0.68086621    -0.18800
H1151       H  0.76631958  0.38890969  0.67522567     0.10300
H1152       H  0.81170602  0.40850576  0.67025152     0.10400
H1153       H  0.84713081  0.32947128  0.68838228     0.10000
H1154       H  0.80209849  0.30974808  0.69309399     0.11100
H1155       H  0.86062845  0.40957589  0.67555577     0.11200
H1156       H  0.88279527  0.34402875  0.67692578     0.13100
H1157       H  0.93146894  0.34047846  0.67330820     0.09700
H1158       H  0.97711444  0.35986907  0.67766372     0.11700
H1159       H  0.94363712  0.44887293  0.68642912     0.08400
H1160       H  0.89842356  0.42962786  0.68236437     0.11100
C1161       C  0.34530113  0.77409536  0.28729630    -0.03500
C1162       C  0.36079564  0.78401648  0.29756458    -0.06100
C1163       C  0.37416578  0.81230118  0.29719007    -0.21200
C1164       C  0.37178529  0.83149886  0.28667653     0.24500
C1165       C  0.35731071  0.82091384  0.27613823    -0.18700
C1166       C  0.34425745  0.79232831  0.27644506    -0.08700
C1167       C  0.38402543  0.86259615  0.28733964    -0.19000
C1168       C  0.37505613  0.88681877  0.28068012    -0.23800
C1169       C  0.38572282  0.91830266  0.28272203     0.26600
C1170       C  0.39468982  0.92789888  0.29460051    -0.20600
C1171       C  0.40538239  0.95726927  0.29627535    -0.10200
C1172       C  0.40730461  0.97788257  0.28614400    -0.10700
C1173       C  0.39718420  0.96878637  0.27437980    -0.03700
C1174       C  0.38630778  0.93928313  0.27272243    -0.18800
H1175       H  0.36190052  0.77026919  0.30602384     0.10300
H1176       H  0.38544472  0.81978914  0.30536647     0.10400
H1177       H  0.35572416  0.83466800  0.26772339     0.10000
H1178       H  0.33224019  0.78518025  0.26844549     0.11100
H1179       H  0.40004003  0.86599170  0.29420669     0.11200
H1180       H  0.35937823  0.88385751  0.27363694     0.13100
H1181       H  0.39341309  0.91283557  0.30266208     0.09700
H1182       H  0.41270685  0.96353862  0.30550491     0.11700
H1183       H  0.39836057  0.98409982  0.26638553     0.08400
H1184       H  0.37905286  0.93252514  0.26353584     0.11100
C1185       C  0.26219035  0.25768977  0.22764711    -0.03500
C1186       C  0.27959849  0.23718650  0.22141498    -0.06100
C1187       C  0.29550327  0.21643534  0.22817962    -0.21200
C1188       C  0.29443482  0.21541683  0.24134750     0.24500
C1189       C  0.27720055  0.23621973  0.24760592    -0.18700
C1190       C  0.26139665  0.25713497  0.24082336    -0.08700
C1191       C  0.31154282  0.19220434  0.24797194    -0.19000
C1192       C  0.31359906  0.18931564  0.26055064    -0.23800
C1193       C  0.33226094  0.16710923  0.26673678     0.26600
C1194       C  0.34253394  0.17414877  0.27867657    -0.20600
C1195       C  0.36191959  0.15529671  0.28436678    -0.10200
C1196       C  0.37125389  0.12865639  0.27830065    -0.10700
C1197       C  0.35956035  0.12051463  0.26671689    -0.03700
C1198       C  0.34029256  0.13948954  0.26099483    -0.18800
H1199       H  0.28065808  0.23682485  0.21126822     0.10300
H1200       H  0.30852622  0.20082448  0.22305385     0.10400
H1201       H  0.27536277  0.23641260  0.25769140     0.10000
H1202       H  0.24793935  0.27231263  0.24591649     0.11100
H1203       H  0.32380676  0.17737506  0.24207774     0.11200
H1204       H  0.30282849  0.20493918  0.26666914     0.13100
H1205       H  0.33638673  0.19502353  0.28340368     0.09700
H1206       H  0.37039230  0.16229119  0.29329329     0.11700
H1207       H  0.36614199  0.10011933  0.26178185     0.08400
H1208       H  0.33203932  0.13260853  0.25202256     0.11100
C1209       C  0.33772338  0.97636429  0.46328747    -0.03500
C1210       C  0.36125019  0.97496490  0.47070011    -0.06100
C1211       C  0.37525331  0.94713971  0.47197723    -0.21200
C1212       C  0.36525062  0.92027849  0.46628632     0.24500
C1213       C  0.34154654  0.92174747  0.45902790    -0.18700
C1214       C  0.32807928  0.94951852  0.45746894    -0.08700
C1215       C  0.38055702  0.89123153  0.46715391    -0.19000
C1216       C  0.36793867  0.86384511  0.46814203    -0.23800
C1217       C  0.38272175  0.83459191  0.46681029     0.26600
C1218       C  0.37607661  0.80942285  0.47447519    -0.20600
C1219       C  0.38942721  0.78131441  0.47292783    -0.10200
C1220       C  0.40885429  0.77775979  0.46336869    -0.10700
C1221       C  0.41499745  0.80290628  0.45556093    -0.03700
C1222       C  0.40223020  0.83107612  0.45732355    -0.18800
H1223       H  0.36899604  0.99538881  0.47528804     0.10300
H1224       H  0.39372154  0.94647952  0.47748497     0.10400
H1225       H  0.33376102  0.90154852  0.45428944     0.10000
H1226       H  0.30980806  0.94991919  0.45181129     0.11100
H1227       H  0.40260885  0.89232264  0.46671844     0.11200
H1228       H  0.34615041  0.86282389  0.46978692     0.13100
H1229       H  0.36080626  0.81166232  0.48174166     0.09700
H1230       H  0.38438280  0.76232817  0.47909032     0.11700
H1231       H  0.43006147  0.80096921  0.44818747     0.08400
H1232       H  0.40721961  0.84996436  0.45109797     0.11100
C1233       C  0.26130858  0.15619630  0.48031586    -0.03500
C1234       C  0.24354921  0.17697070  0.47447845    -0.06100
C1235       C  0.23706643  0.20478009  0.48020263    -0.21200
C1236       C  0.24834905  0.21270547  0.49182518     0.24500
C1237       C  0.26516422  0.19134505  0.49798108    -0.18700
C1238       C  0.27156924  0.16334552  0.49226135    -0.08700
C1239       C  0.24175665  0.24331375  0.49713478    -0.19000
C1240       C  0.25707592  0.25775128  0.50577298    -0.23800
C1241       C  0.24965189  0.28801655  0.51110681     0.26600
C1242       C  0.25705606  0.29445606  0.52350210    -0.20600
C1243       C  0.24898627  0.32176026  0.52918556    -0.10200
C1244       C  0.23352606  0.34348500  0.52254056    -0.10700
C1245       C  0.22735583  0.33782526  0.50988631    -0.03700
C1246       C  0.23534848  0.31031152  0.50420620    -0.18800
H1247       H  0.23521772  0.17213515  0.46528625     0.10300
H1248       H  0.22378116  0.22058732  0.47534033     0.10400
H1249       H  0.27351132  0.19607076  0.50715652     0.10000
H1250       H  0.28536226  0.14785014  0.49697886     0.11100
H1251       H  0.22370666  0.25458217  0.49356400     0.11200
H1252       H  0.27502359  0.24669549  0.50952534     0.13100
H1253       H  0.26835576  0.27783337  0.52895112     0.09700
H1254       H  0.25430101  0.32544320  0.53892714     0.11700
H1255       H  0.21564832  0.35417638  0.50449443     0.08400
H1256       H  0.23018133  0.30651888  0.49446611     0.11100
C1257       C  0.32194735  0.06594317  0.41362027    -0.03500
C1258       C  0.31108909  0.04589461  0.40454749    -0.06100
C1259       C  0.32154880  0.04541763  0.39231583    -0.21200
C1260       C  0.34359304  0.06427863  0.38896433     0.24500
C1261       C  0.35485512  0.08392642  0.39805917    -0.18700
C1262       C  0.34398693  0.08495321  0.41022051    -0.08700
C1263       C  0.35359388  0.06424037  0.37578938    -0.19000
C1264       C  0.38019971  0.06583628  0.37288859    -0.23800
C1265       C  0.39039189  0.06562566  0.35975585     0.26600
C1266       C  0.41410487  0.04929730  0.35689570    -0.20600
C1267       C  0.42512583  0.05011646  0.34478645    -0.10200
C1268       C  0.41313361  0.06807918  0.33533489    -0.10700
C1269       C  0.38927311  0.08439347  0.33819933    -0.03700
C1270       C  0.37786127  0.08293530  0.35025910    -0.18800
H1271       H  0.29397252  0.03114478  0.40680037     0.10300
H1272       H  0.31243196  0.03023517  0.38544763     0.10400
H1273       H  0.37155149  0.09914859  0.39566633     0.10000
H1274       H  0.35274328  0.10076255  0.41694687     0.11100
H1275       H  0.33881041  0.06117855  0.36832652     0.11200
H1276       H  0.39511601  0.06563601  0.38039510     0.13100
H1277       H  0.42419381  0.03595790  0.36408008     0.09700
H1278       H  0.44361943  0.03747869  0.34294733     0.11700
H1279       H  0.37960319  0.09854990  0.33115859     0.08400
H1280       H  0.35979909  0.09618652  0.35227523     0.11100
C1281       C  0.48371089  0.25418006  0.51941874    -0.03500
C1282       C  0.47042559  0.22912824  0.52512469    -0.06100
C1283       C  0.45318060  0.20997095  0.51820473    -0.21200
C1284       C  0.44862637  0.21512184  0.50536710     0.24500
C1285       C  0.46176739  0.24034021  0.49961612    -0.18700
C1286       C  0.47903123  0.25963842  0.50658096    -0.08700
C1287       C  0.43067740  0.19295603  0.49850409    -0.19000
C1288       C  0.42199500  0.19617873  0.48655662    -0.23800
C1289       C  0.40359782  0.17345880  0.48031384     0.26600
C1290       C  0.38653505  0.18340480  0.47059313    -0.20600
C1291       C  0.36782889  0.16323117  0.46504428    -0.10200
C1292       C  0.36580643  0.13244923  0.46903356    -0.10700
C1293       C  0.38391498  0.12207620  0.47829946    -0.03700
C1294       C  0.40266646  0.14225607  0.48382710    -0.18800
H1295       H  0.47352106  0.22406454  0.53496517     0.10300
H1296       H  0.44348374  0.19078344  0.52293136     0.10400
H1297       H  0.45928948  0.24511817  0.48974221     0.10000
H1298       H  0.48908700  0.27855400  0.50184176     0.11100
H1299       H  0.42363227  0.17319302  0.50382276     0.11200
H1300       H  0.42708217  0.21676898  0.48132432     0.13100
H1301       H  0.38700429  0.20716927  0.46757211     0.09700
H1302       H  0.35414403  0.17216661  0.45799603     0.11700
H1303       H  0.38306232  0.09853306  0.48157138     0.08400
H1304       H  0.41621366  0.13331486  0.49091165     0.11100
C1305       C  0.51255150  0.34986809  0.22982469    -0.03500
C1306       C  0.49529760  0.32962329  0.22328523    -0.06100
C1307       C  0.48675905  0.30211147  0.22875638    -0.21200
C1308       C  0.49556911  0.29399445  0.24078855     0.24500
C1309       C  0.51148635  0.31502244  0.24766292    -0.18700
C1310       C  0.51985238  0.34278122  0.24222235    -0.08700
C1311       C  0.48791780  0.26335091  0.24577311    -0.19000
C1312       C  0.50373300  0.24754371  0.25376012    -0.23800
C1313       C  0.49610935  0.21698741  0.25886035     0.26600
C1314       C  0.50567340  0.20883143  0.27076931    -0.20600
C1315       C  0.49738785  0.18137488  0.27637466    -0.10200
C1316       C  0.47973810  0.16113827  0.27007318    -0.10700
C1317       C  0.47146008  0.16834980  0.25781999    -0.03700
C1318       C  0.47951314  0.19609700  0.25225577    -0.18800
H1319       H  0.48906630  0.33457963  0.21375715     0.10300
H1320       H  0.47411428  0.28653850  0.22336850     0.10400
H1321       H  0.51774843  0.30997143  0.25716544     0.10000
H1322       H  0.53300197  0.35800207  0.24751125     0.11100
H1323       H  0.46914513  0.25317688  0.24236848     0.11200
H1324       H  0.52252927  0.25777317  0.25711927     0.13100
H1325       H  0.51878685  0.22431046  0.27596089     0.09700
H1326       H  0.50426066  0.17633695  0.28580110     0.11700
H1327       H  0.45785178  0.15319020  0.25275157     0.08400
H1328       H  0.47255034  0.20117327  0.24286242     0.11100
C1329       C  0.36669952  0.62187637  0.27985855    -0.03500
C1330       C  0.37167605  0.59292526  0.28527800    -0.06100
C1331       C  0.39084547  0.57297444  0.28001050    -0.21200
C1332       C  0.40511732  0.58124060  0.26909963     0.24500
C1333       C  0.40126468  0.61081180  0.26408171    -0.18700
C1334       C  0.38230212  0.63085127  0.26939414    -0.08700
C1335       C  0.42372621  0.55865655  0.26308317    -0.19000
C1336       C  0.42722863  0.55744373  0.25052354    -0.23800
C1337       C  0.44594033  0.53618181  0.24374757     0.26600
C1338       C  0.45113469  0.54195575  0.23099475    -0.20600
C1339       C  0.46933960  0.52384222  0.22419286    -0.10200
C1340       C  0.48280755  0.49918331  0.22993815    -0.10700
C1341       C  0.47695065  0.49263262  0.24261024    -0.03700
C1342       C  0.45874137  0.51087649  0.24944989    -0.18800
H1343       H  0.36009223  0.58521070  0.29333887     0.10300
H1344       H  0.39373706  0.55052227  0.28418017     0.10400
H1345       H  0.41268657  0.61843415  0.25596459     0.10000
H1346       H  0.37917891  0.65298356  0.26499153     0.11100
H1347       H  0.43382693  0.54232471  0.26915313     0.11200
H1348       H  0.41593278  0.57347799  0.24473997     0.13100
H1349       H  0.44144629  0.56106274  0.22629149     0.09700
H1350       H  0.47320815  0.52955496  0.21446330     0.11700
H1351       H  0.48681622  0.47368955  0.24733523     0.08400
H1352       H  0.45495894  0.50501164  0.25914657     0.11100
C1353       C  0.28318995  0.35330157  0.18141720    -0.03500
C1354       C  0.28777159  0.38434995  0.17841661    -0.06100
C1355       C  0.31417769  0.39538994  0.17642494    -0.21200
C1356       C  0.33668257  0.37575372  0.17733640     0.24500
C1357       C  0.33196887  0.34436399  0.17980195    -0.18700
C1358       C  0.30555336  0.33332351  0.18177197    -0.08700
C1359       C  0.36448754  0.38958329  0.17684412    -0.19000
C1360       C  0.38779791  0.37333877  0.17659703    -0.23800
C1361       C  0.41532053  0.38728626  0.17822073     0.26600
C1362       C  0.43834674  0.36987240  0.17509733    -0.20600
C1363       C  0.46457915  0.38079552  0.17769598    -0.10200
C1364       C  0.46836748  0.40948687  0.18348935    -0.10700
C1365       C  0.44534761  0.42723426  0.18633012    -0.03700
C1366       C  0.41919153  0.41625535  0.18382159    -0.18800
H1367       H  0.27106686  0.40043988  0.17809081     0.10300
H1368       H  0.31708635  0.41966378  0.17457738     0.10400
H1369       H  0.34847450  0.32829513  0.18079147     0.10000
H1370       H  0.30279878  0.30927657  0.18408097     0.11100
H1371       H  0.36557657  0.41446669  0.17703373     0.11200
H1372       H  0.38703352  0.34864438  0.17537757     0.13100
H1373       H  0.43601519  0.34736528  0.17089095     0.09700
H1374       H  0.48182766  0.36644546  0.17545564     0.11700
H1375       H  0.44743037  0.44922606  0.19098672     0.08400
H1376       H  0.40221538  0.43010288  0.18681036     0.11100
C1377       C  0.72988893  0.34953813  0.01839086    -0.03500
C1378       C  0.72130240  0.34687876  0.00586005    -0.06100
C1379       C  0.72678837  0.32032160  0.99896921    -0.21200
C1380       C  0.74069445  0.29567869  0.00445573     0.24500
C1381       C  0.74996975  0.29854544  0.01687080    -0.18700
C1382       C  0.74458874  0.32519628  0.02376494    -0.08700
C1383       C  0.74577069  0.26784378  0.99678723    -0.19000
C1384       C  0.74761028  0.23927865  0.00163850    -0.23800
C1385       C  0.75242938  0.21129249  0.99390182     0.26600
C1386       C  0.76165561  0.18440461  0.99980367    -0.20600
C1387       C  0.76812465  0.15827685  0.99275543    -0.10200
C1388       C  0.76534889  0.15846887  0.97963179    -0.10700
C1389       C  0.75464091  0.18477673  0.97382790    -0.03700
C1390       C  0.74815241  0.21076715  0.98084943    -0.18800
H1391       H  0.70971799  0.36500724  0.00144880     0.10300
H1392       H  0.71961717  0.31874166  0.98938582     0.10400
H1393       H  0.76151912  0.28037810  0.02125526     0.10000
H1394       H  0.75159141  0.32653045  0.03337562     0.11100
H1395       H  0.74728702  0.27137219  0.98675338     0.11200
H1396       H  0.74593349  0.23618874  0.01171695     0.13100
H1397       H  0.76466528  0.18391071  0.00986549     0.09700
H1398       H  0.77614677  0.13833961  0.99754477     0.11700
H1399       H  0.75183268  0.18564230  0.96375911     0.08400
H1400       H  0.73988775  0.23026370  0.97590720     0.11100
C1401       C  0.66584371  0.43869667  0.08484051    -0.03500
C1402       C  0.64054024  0.42380656  0.08604756    -0.06100
C1403       C  0.62562870  0.42576654  0.09723209    -0.21200
C1404       C  0.63599191  0.44183165  0.10760794     0.24500
C1405       C  0.66127614  0.45684175  0.10641046    -0.18700
C1406       C  0.67590708  0.45551048  0.09511006    -0.08700
C1407       C  0.61973427  0.44305874  0.11942864    -0.19000
C1408       C  0.63117043  0.44303482  0.13092625    -0.23800
C1409       C  0.61517567  0.44221235  0.14283221     0.26600
C1410       C  0.62599430  0.42692048  0.15328179    -0.20600
C1411       C  0.61161584  0.42550094  0.16462399    -0.10200
C1412       C  0.58631130  0.44008566  0.16592350    -0.10700
C1413       C  0.57578035  0.45616535  0.15556166    -0.03700
C1414       C  0.58993060  0.45700676  0.14410365    -0.18800
H1415       H  0.63212278  0.41089599  0.07827767     0.10300
H1416       H  0.60610833  0.41423898  0.09785568     0.10400
H1417       H  0.66957411  0.46998938  0.11413247     0.10000
H1418       H  0.69531261  0.46726340  0.09446598     0.11100
H1419       H  0.59775328  0.44159761  0.11863726     0.11200
H1420       H  0.65313095  0.44126612  0.13167137     0.13100
H1421       H  0.64549432  0.41557269  0.15260498     0.09700
H1422       H  0.62039929  0.41306803  0.17242111     0.11700
H1423       H  0.55634613  0.46762966  0.15624418     0.08400
H1424       H  0.58128628  0.46958352  0.13631993     0.11100
C1425       C  0.87745760  0.63695166  0.97475137    -0.03500
C1426       C  0.86396814  0.64943945  0.98521015    -0.06100
C1427       C  0.84418035  0.63243072  0.99161965    -0.21200
C1428       C  0.83751397  0.60250704  0.98780915     0.24500
C1429       C  0.84948054  0.59085566  0.97679843    -0.18700
C1430       C  0.86929426  0.60788679  0.97036621    -0.08700
C1431       C  0.81865901  0.58408007  0.99577473    -0.19000
C1432       C  0.81868985  0.55312070  0.99614043    -0.23800
C1433       C  0.80087396  0.53486319  0.00463313     0.26600
C1434       C  0.79295927  0.50522137  0.00096360    -0.20600
C1435       C  0.77549696  0.48768149  0.00848455    -0.10200
C1436       C  0.76592488  0.49921064  0.01998849    -0.10700
C1437       C  0.77493346  0.52831577  0.02396003    -0.03700
C1438       C  0.79217978  0.54600553  0.01635918    -0.18800
H1439       H  0.86960830  0.67179446  0.98884410     0.10300
H1440       H  0.83495385  0.64217578  0.99994126     0.10400
H1441       H  0.84401828  0.56842622  0.97322655     0.10000
H1442       H  0.87902405  0.59770368  0.96226607     0.11100
H1443       H  0.80522501  0.59662657  0.00200439     0.11200
H1444       H  0.83196036  0.54037396  0.98991770     0.13100
H1445       H  0.79975772  0.49589885  0.99208016     0.09700
H1446       H  0.76916573  0.46524405  0.00518958     0.11700
H1447       H  0.76809128  0.53779746  0.03280205     0.08400
H1448       H  0.79871854  0.56827710  0.01972222     0.11100
C1449       C  0.96169968  0.34023083  0.06461663    -0.03500
C1450       C  0.94090471  0.31804315  0.06374087    -0.06100
C1451       C  0.91432643  0.32505519  0.06727047    -0.21200
C1452       C  0.90775258  0.35445677  0.07163228     0.24500
C1453       C  0.92872414  0.37629389  0.07310919    -0.18700
C1454       C  0.95543040  0.36924077  0.06960687    -0.08700
C1455       C  0.87865731  0.36164973  0.07391591    -0.19000
C1456       C  0.86833286  0.38997063  0.07224985    -0.23800
C1457       C  0.83874762  0.39723809  0.07178252     0.26600
C1458       C  0.83131083  0.42807637  0.07019922    -0.20600
C1459       C  0.80435464  0.43608157  0.06783724    -0.10200
C1460       C  0.78400739  0.41338104  0.06697430    -0.10700
C1461       C  0.79105384  0.38266629  0.06931754    -0.03700
C1462       C  0.81810861  0.37461267  0.07167680    -0.18800
H1463       H  0.94498573  0.29536660  0.06004316     0.10300
H1464       H  0.89862711  0.30774230  0.06613893     0.10400
H1465       H  0.92459485  0.39887663  0.07685983     0.10000
H1466       H  0.97102697  0.38671118  0.07056950     0.11100
H1467       H  0.86527051  0.34234873  0.07574713     0.11200
H1468       H  0.88216943  0.40874075  0.07008890     0.13100
H1469       H  0.84661896  0.44605532  0.07029386     0.09700
H1470       H  0.79968924  0.46002987  0.06618881     0.11700
H1471       H  0.77587992  0.36461807  0.06875814     0.08400
H1472       H  0.82258776  0.35053873  0.07283805     0.11100
C1473       C  0.23281428  0.51022374  0.97993478    -0.03500
C1474       C  0.22098920  0.48426047  0.97426666    -0.06100
C1475       C  0.20453950  0.46418044  0.98121101    -0.21200
C1476       C  0.19944858  0.46933300  0.99401368     0.24500
C1477       C  0.21053860  0.49591104  0.99960497    -0.18700
C1478       C  0.22701074  0.51603963  0.99264012    -0.08700
C1479       C  0.18254210  0.44628307  0.00096832    -0.19000
C1480       C  0.17793957  0.44633221  0.01346950    -0.23800
C1481       C  0.15995289  0.42329911  0.01972954     0.26600
C1482       C  0.14485212  0.43209356  0.03030266    -0.20600
C1483       C  0.12563479  0.41208341  0.03560868    -0.10200
C1484       C  0.12133283  0.38259998  0.03054191    -0.10700
C1485       C  0.13803548  0.37298297  0.02057382    -0.03700
C1486       C  0.15712516  0.39307263  0.01522973    -0.18800
H1487       H  0.22493210  0.47899521  0.96450812     0.10300
H1488       H  0.19613845  0.44413938  0.97657643     0.10400
H1489       H  0.20687669  0.50137274  0.00933416     0.10000
H1490       H  0.23568367  0.53586637  0.99731122     0.11100
H1491       H  0.17312220  0.42835626  0.99536282     0.11200
H1492       H  0.18608433  0.46453848  0.01929027     0.13100
H1493       H  0.14697988  0.45505454  0.03409975     0.09700
H1494       H  0.11326279  0.42028795  0.04330637     0.11700
H1495       H  0.13553010  0.35036731  0.01650147     0.08400
H1496       H  0.16926059  0.38504007  0.00743142     0.11100
C1497       C  0.21627820  0.60213988  0.93271350    -0.03500
C1498       C  0.21172160  0.63262082  0.92891929    -0.06100
C1499       C  0.18547653  0.64255350  0.92597183    -0.21200
C1500       C  0.16318151  0.62234723  0.92677134     0.24500
C1501       C  0.16810403  0.59132604  0.92977880    -0.18700
C1502       C  0.19427033  0.58146675  0.93278478    -0.08700
C1503       C  0.13527040  0.63507330  0.92516266    -0.19000
C1504       C  0.11243503  0.62001209  0.92862778    -0.23800
C1505       C  0.08498808  0.63409744  0.92922310     0.26600
C1506       C  0.06234857  0.61446842  0.93005638    -0.20600
C1507       C  0.03654183  0.62608658  0.93265156    -0.10200
C1508       C  0.03278235  0.65769664  0.93461749    -0.10700
C1509       C  0.05518627  0.67759835  0.93316306    -0.03700
C1510       C  0.08104020  0.66596017  0.93049791    -0.18800
H1511       H  0.22824152  0.64913805  0.92868390     0.10300
H1512       H  0.18245289  0.66645921  0.92353785     0.10400
H1513       H  0.15199708  0.57443103  0.93006033     0.10000
H1514       H  0.19708960  0.55771863  0.93550339     0.11100
H1515       H  0.13375490  0.65848222  0.92175022     0.11200
H1516       H  0.11358224  0.59649042  0.93185698     0.13100
H1517       H  0.06480273  0.58984648  0.92916313     0.09700
H1518       H  0.01979139  0.61006559  0.93371842     0.11700
H1519       H  0.05299154  0.70207890  0.93461576     0.08400
H1520       H  0.09795048  0.68188643  0.93018156     0.11100
C1521       C  0.41129724  0.56892390  0.83610423    -0.03500
C1522       C  0.38581041  0.58310696  0.83719632    -0.06100
C1523       C  0.37181709  0.58270270  0.84860949    -0.21200
C1524       C  0.38334628  0.56888317  0.85921247     0.24500
C1525       C  0.40867211  0.55432350  0.85811583    -0.18700
C1526       C  0.42241902  0.55413877  0.84662736    -0.08700
C1527       C  0.36812311  0.56915964  0.87118474    -0.19000
C1528       C  0.38038575  0.57173436  0.88240389    -0.23800
C1529       C  0.36468326  0.57257124  0.89425204     0.26600
C1530       C  0.37342973  0.59152125  0.90408962    -0.20600
C1531       C  0.35842344  0.59321865  0.91521934    -0.10200
C1532       C  0.33471385  0.57540782  0.91680455    -0.10700
C1533       C  0.32649965  0.55571855  0.90707528    -0.03700
C1534       C  0.34125836  0.55440845  0.89589188    -0.18800
H1535       H  0.37668141  0.59448351  0.82921617     0.10300
H1536       H  0.35216684  0.59373783  0.84923033     0.10400
H1537       H  0.41770447  0.54281380  0.86608274     0.10000
H1538       H  0.44202939  0.54301976  0.84604939     0.11100
H1539       H  0.34605917  0.56913858  0.87069548     0.11200
H1540       H  0.40225316  0.57518158  0.88286787     0.13100
H1541       H  0.39158182  0.60549101  0.90305620     0.09700
H1542       H  0.36540498  0.60843263  0.92258604     0.11700
H1543       H  0.30842296  0.54161195  0.90802681     0.08400
H1544       H  0.33445773  0.53897745  0.88856979     0.11100
C1545       C  0.62318837  0.38054648  0.72037755    -0.03500
C1546       C  0.62031014  0.41136103  0.71663605    -0.06100
C1547       C  0.60156414  0.43055025  0.72257736    -0.21200
C1548       C  0.58523938  0.41958296  0.73243814     0.24500
C1549       C  0.58691733  0.38826850  0.73569826    -0.18700
C1550       C  0.60577174  0.36904810  0.72977229    -0.08700
C1551       C  0.56718253  0.44173554  0.73909169    -0.19000
C1552       C  0.55735316  0.43725022  0.75079226    -0.23800
C1553       C  0.54099238  0.46027688  0.75790890     0.26600
C1554       C  0.53737951  0.45595214  0.77087058    -0.20600
C1555       C  0.52196335  0.47654816  0.77797830    -0.10200
C1556       C  0.50961814  0.50208607  0.77229351    -0.10700
C1557       C  0.51329428  0.50654777  0.75932858    -0.03700
C1558       C  0.52864693  0.48588251  0.75220511    -0.18800
H1559       H  0.63340649  0.42112851  0.70948394     0.10300
H1560       H  0.60052514  0.45442244  0.71974202     0.10400
H1561       H  0.57401925  0.37849781  0.74289909     0.10000
H1562       H  0.60731919  0.34541237  0.73285675     0.11100
H1563       H  0.56366030  0.46346956  0.73442263     0.11200
H1564       H  0.56266343  0.41638807  0.75576866     0.13100
H1565       H  0.54644748  0.43640914  0.77554095     0.09700
H1566       H  0.51935608  0.47213019  0.78790598     0.11700
H1567       H  0.50372404  0.52565954  0.75458532     0.08400
H1568       H  0.53013186  0.48987088  0.74222833     0.11100
C1569       C  0.71172072  0.64874271  0.82038966    -0.03500
C1570       C  0.70772048  0.61843735  0.82457114    -0.06100
C1571       C  0.68167582  0.60777433  0.82755202    -0.21200
C1572       C  0.65900889  0.62706250  0.82643790     0.24500
C1573       C  0.66314579  0.65772265  0.82260667    -0.18700
C1574       C  0.68920886  0.66841677  0.81968757    -0.08700
C1575       C  0.63147142  0.61329991  0.82803355    -0.19000
C1576       C  0.60831162  0.62969526  0.82854382    -0.23800
C1577       C  0.58054086  0.61624310  0.82726150     0.26600
C1578       C  0.55826001  0.63630576  0.82744161    -0.20600
C1579       C  0.53222172  0.62587574  0.82435235    -0.10200
C1580       C  0.52788258  0.59505895  0.82097114    -0.10700
C1581       C  0.54976887  0.57453774  0.82153972    -0.03700
C1582       C  0.57579305  0.58492608  0.82464216    -0.18800
H1583       H  0.72460033  0.60263825  0.82520421     0.10300
H1584       H  0.67913817  0.58402174  0.83038369     0.10400
H1585       H  0.64641604  0.67335005  0.82127683     0.10000
H1586       H  0.69153787  0.69184713  0.81642070     0.11100
H1587       H  0.63058791  0.58846354  0.82819796     0.11200
H1588       H  0.60948388  0.65450210  0.82920925     0.13100
H1589       H  0.56117514  0.66049381  0.82944833     0.09700
H1590       H  0.51577066  0.64229777  0.82403616     0.11700
H1591       H  0.54703097  0.55057800  0.81909581     0.08400
H1592       H  0.59198773  0.56832536  0.82440568     0.11100
C1593       C  0.59150314  0.23163470  0.53617313    -0.03500
C1594       C  0.59444358  0.21871599  0.52416027    -0.06100
C1595       C  0.60659273  0.18991940  0.52266996    -0.21200
C1596       C  0.61585048  0.17352392  0.53314797     0.24500
C1597       C  0.61471090  0.18748547  0.54503503    -0.18700
C1598       C  0.60251366  0.21612992  0.54653500    -0.08700
C1599       C  0.62600113  0.14167970  0.53155759    -0.19000
C1600       C  0.62179470  0.12008286  0.54042254    -0.23800
C1601       C  0.63204379  0.08803503  0.53993037     0.26600
C1602       C  0.63200922  0.07116468  0.55114525    -0.20600
C1603       C  0.64280624  0.04166279  0.55159026    -0.10200
C1604       C  0.65365079  0.02803100  0.54076888    -0.10700
C1605       C  0.65254444  0.04416928  0.52935303    -0.03700
C1606       C  0.64190764  0.07400059  0.52892387    -0.18800
H1607       H  0.58611700  0.23010277  0.51599762     0.10300
H1608       H  0.60763381  0.17982319  0.51339836     0.10400
H1609       H  0.62279008  0.17607239  0.55323830     0.10000
H1610       H  0.60096573  0.22572769  0.55587936     0.11100
H1611       H  0.63618324  0.13602504  0.52284269     0.11200
H1612       H  0.61064350  0.12642864  0.54882668     0.13100
H1613       H  0.62430743  0.08120740  0.55973418     0.09700
H1614       H  0.64325944  0.02976216  0.56051607     0.11700
H1615       H  0.66089854  0.03424744  0.52087640     0.08400
H1616       H  0.64172023  0.08587067  0.52001842     0.11100
C1617       C  0.61840833  0.87711993  0.53191176    -0.03500
C1618       C  0.60975841  0.84950122  0.53753378    -0.06100
C1619       C  0.59141477  0.83005144  0.53136138    -0.21200
C1620       C  0.58170541  0.83747764  0.51936431     0.24500
C1621       C  0.58898452  0.86598838  0.51408895    -0.18700
C1622       C  0.60707206  0.88559986  0.52031396    -0.08700
C1623       C  0.56429572  0.81488936  0.51260019    -0.19000
C1624       C  0.56384886  0.81250871  0.49996897    -0.23800
C1625       C  0.54714423  0.78969059  0.49289068     0.26600
C1626       C  0.54260304  0.79470323  0.48004217    -0.20600
C1627       C  0.52636146  0.77454612  0.47305363    -0.10200
C1628       C  0.51434074  0.74867194  0.47873663    -0.10700
C1629       C  0.51973959  0.74298669  0.49149145    -0.03700
C1630       C  0.53599150  0.76314348  0.49847877    -0.18800
H1631       H  0.61803128  0.84227984  0.54646511     0.10300
H1632       H  0.58574960  0.80846761  0.53572964     0.10400
H1633       H  0.58106454  0.87306491  0.50508255     0.10000
H1634       H  0.61323896  0.90670142  0.51570932     0.11100
H1635       H  0.55245472  0.79915018  0.51831253     0.11200
H1636       H  0.57618962  0.82820378  0.49442993     0.13100
H1637       H  0.55117247  0.81472296  0.47543409     0.09700
H1638       H  0.52264636  0.77972576  0.46326969     0.11700
H1639       H  0.51097437  0.72319447  0.49617570     0.08400
H1640       H  0.53967773  0.75765232  0.50821200     0.11100
C1641       C  0.59298764  0.02534062  0.71706282    -0.03500
C1642       C  0.61260354  0.02930654  0.72650129    -0.06100
C1643       C  0.62583300  0.05768713  0.72789664    -0.21200
C1644       C  0.61883621  0.08253344  0.72016984     0.24500
C1645       C  0.59950361  0.07835890  0.71067848    -0.18700
C1646       C  0.58686576  0.05005725  0.70908960    -0.08700
C1647       C  0.63259670  0.11248652  0.72145531    -0.19000
C1648       C  0.61868459  0.13885723  0.72037889    -0.23800
C1649       C  0.63236305  0.16867048  0.71852362     0.26600
C1650       C  0.62168588  0.19527695  0.72402218    -0.20600
C1651       C  0.63384358  0.22387197  0.72175210    -0.10200
C1652       C  0.65609228  0.22623805  0.71353481    -0.10700
C1653       C  0.66626972  0.19963294  0.70781314    -0.03700
C1654       C  0.65468153  0.17107094  0.71037306    -0.18800
H1655       H  0.61769582  0.01054756  0.73273809     0.10300
H1656       H  0.64106647  0.06045474  0.73513584     0.10400
H1657       H  0.59435208  0.09696879  0.70437183     0.10000
H1658       H  0.57175245  0.04777891  0.70176652     0.11100
H1659       H  0.65450682  0.11289484  0.72270890     0.11200
H1660       H  0.59659457  0.13841262  0.72027177     0.13100
H1661       H  0.60419230  0.19383031  0.73017837     0.09700
H1662       H  0.62581378  0.24410453  0.72632912     0.11700
H1663       H  0.68367072  0.20082371  0.70159022     0.08400
H1664       H  0.66281042  0.15093110  0.70576412     0.11100
C1665       C  0.51465725  0.84659875  0.73437899    -0.03500
C1666       C  0.49480313  0.82787057  0.72872042    -0.06100
C1667       C  0.48574111  0.80114907  0.73464104    -0.21200
C1668       C  0.49662658  0.79234269  0.74621920     0.24500
C1669       C  0.51511333  0.81208944  0.75230466    -0.18700
C1670       C  0.52402723  0.83904183  0.74642427    -0.08700
C1671       C  0.48902658  0.76190645  0.75137454    -0.19000
C1672       C  0.50623355  0.74495256  0.75827093    -0.23800
C1673       C  0.49950527  0.71369958  0.76283077     0.26600
C1674       C  0.51136537  0.70354901  0.77401272    -0.20600
C1675       C  0.50430809  0.67504836  0.77905923    -0.10200
C1676       C  0.48549443  0.65588365  0.77290865    -0.10700
C1677       C  0.47496798  0.66514537  0.76127527    -0.03700
C1678       C  0.48187042  0.69385934  0.75627380    -0.18800
H1679       H  0.48689923  0.83332361  0.71950879     0.10300
H1680       H  0.47114200  0.78655664  0.72988084     0.10400
H1681       H  0.52307725  0.80653305  0.76148199     0.10000
H1682       H  0.53913298  0.85319048  0.75105937     0.11100
H1683       H  0.46937462  0.75250208  0.74873373     0.11200
H1684       H  0.52589857  0.75435125  0.76089261     0.13100
H1685       H  0.52534974  0.71822080  0.77911222     0.09700
H1686       H  0.51284857  0.66848993  0.78802510     0.11700
H1687       H  0.46038186  0.65089853  0.75634507     0.08400
H1688       H  0.47318442  0.70052127  0.74736612     0.11100
C1689       C  0.65936347  0.93800369  0.58782944    -0.03500
C1690       C  0.63313088  0.92535408  0.58907724    -0.06100
C1691       C  0.61870881  0.92811283  0.60033780    -0.21200
C1692       C  0.63043414  0.94278332  0.61072198     0.24500
C1693       C  0.65655979  0.95575388  0.60948941    -0.18700
C1694       C  0.67077688  0.95363102  0.59810771    -0.08700
C1695       C  0.61487638  0.94431269  0.62267095    -0.19000
C1696       C  0.62676030  0.94068371  0.63394112    -0.23800
C1697       C  0.61120140  0.93914067  0.64590319     0.26600
C1698       C  0.62065433  0.92006623  0.65554888    -0.20600
C1699       C  0.60664165  0.91793431  0.66694397    -0.10200
C1700       C  0.58311606  0.93541789  0.66908981    -0.10700
C1701       C  0.57390084  0.95502128  0.65950436    -0.03700
C1702       C  0.58768811  0.95671484  0.64798931    -0.18800
H1703       H  0.62367339  0.91340329  0.58130589     0.10300
H1704       H  0.59854422  0.91813713  0.60103330     0.10400
H1705       H  0.66588702  0.96774350  0.61727901     0.10000
H1706       H  0.69090506  0.96367897  0.59742602     0.11100
H1707       H  0.59286090  0.94556593  0.62210491     0.11200
H1708       H  0.64844282  0.93611832  0.63433570     0.13100
H1709       H  0.63878704  0.90642540  0.65419797     0.09700
H1710       H  0.61438328  0.90270658  0.67412506     0.11700
H1711       H  0.55585993  0.96879565  0.66085089     0.08400
H1712       H  0.58019490  0.97211214  0.64081849     0.11100
C1713       C  0.72944886  0.74082435  0.77464729    -0.03500
C1714       C  0.71722893  0.72673976  0.76420381    -0.06100
C1715       C  0.69914100  0.74299410  0.75662854    -0.21200
C1716       C  0.69341978  0.77390964  0.75909512     0.24500
C1717       C  0.70496155  0.78786686  0.76975651    -0.18700
C1718       C  0.72267353  0.77135948  0.77751828    -0.08700
C1719       C  0.67506938  0.79066616  0.75043952    -0.19000
C1720       C  0.67844864  0.82060694  0.74756298    -0.23800
C1721       C  0.66029825  0.83801139  0.73892740     0.26600
C1722       C  0.66045458  0.87021321  0.73956670    -0.20600
C1723       C  0.64193649  0.88751131  0.73260179    -0.10200
C1724       C  0.62291834  0.87300909  0.72471050    -0.10700
C1725       C  0.62414972  0.84093877  0.72331284    -0.03700
C1726       C  0.64263341  0.82360318  0.73032581    -0.18800
H1727       H  0.72186922  0.70316238  0.76181745     0.10300
H1728       H  0.69019676  0.73163133  0.74857903     0.10400
H1729       H  0.70028704  0.81143556  0.77211335     0.10000
H1730       H  0.73174600  0.78277448  0.78551985     0.11100
H1731       H  0.65905633  0.77736308  0.74602779     0.11200
H1732       H  0.69487714  0.83328995  0.75201113     0.13100
H1733       H  0.67415891  0.88201128  0.74590491     0.09700
H1734       H  0.64170498  0.91219754  0.73385300     0.11700
H1735       H  0.60987604  0.82902772  0.71729133     0.08400
H1736       H  0.64254233  0.79896896  0.72909434     0.11100
C1737       C  0.76446002  0.65785408  0.48296751    -0.03500
C1738       C  0.76943622  0.65803894  0.49595067    -0.06100
C1739       C  0.76251108  0.68356615  0.50321110    -0.21200
C1740       C  0.75075542  0.70949166  0.49763406     0.24500
C1741       C  0.74466440  0.70881214  0.48475893    -0.18700
C1742       C  0.75150273  0.68330071  0.47750640    -0.08700
C1743       C  0.74478773  0.73665357  0.50552916    -0.19000
C1744       C  0.74499912  0.76556503  0.50098803    -0.23800
C1745       C  0.73858188  0.79305508  0.50865982     0.26600
C1746       C  0.73012376  0.81989380  0.50251705    -0.20600
C1747       C  0.72247163  0.84581222  0.50937177    -0.10200
C1748       C  0.72342103  0.84551782  0.52253796    -0.10700
C1749       C  0.73310771  0.81911885  0.52866661    -0.03700
C1750       C  0.74065882  0.79320204  0.52181874    -0.18800
H1751       H  0.77938794  0.63883906  0.50045649     0.10300
H1752       H  0.76705320  0.68342017  0.51314984     0.10400
H1753       H  0.73458799  0.72789015  0.48024419     0.10000
H1754       H  0.74707120  0.68378559  0.46756066     0.11100
H1755       H  0.74069264  0.73245044  0.51537318     0.11200
H1756       H  0.74938352  0.76938065  0.49112880     0.13100
H1757       H  0.72873077  0.82054103  0.49238106     0.09700
H1758       H  0.71529311  0.86583562  0.50435900     0.11700
H1759       H  0.73434766  0.81818416  0.53880213     0.08400
H1760       H  0.74811079  0.77349814  0.52691738     0.11100
C1761       C  0.61349367  0.38609447  0.53066280    -0.03500
C1762       C  0.63789929  0.37288869  0.52650093    -0.06100
C1763       C  0.65815359  0.39113174  0.52092020    -0.21200
C1764       C  0.65394974  0.42264732  0.51892609     0.24500
C1765       C  0.62982745  0.43602271  0.52334869    -0.18700
C1766       C  0.60995441  0.41797963  0.52929414    -0.08700
C1767       C  0.67490053  0.44107174  0.51216984    -0.19000
C1768       C  0.66842321  0.46151063  0.50314868    -0.23800
C1769       C  0.68924269  0.47847536  0.49568048     0.26600
C1770       C  0.68472670  0.48401835  0.48286083    -0.20600
C1771       C  0.70407395  0.49985981  0.47560870    -0.10200
C1772       C  0.72793716  0.51139842  0.48114122    -0.10700
C1773       C  0.73210713  0.50644202  0.49405128    -0.03700
C1774       C  0.71312394  0.48992134  0.50121248    -0.18800
H1775       H  0.64111702  0.34839342  0.52739717     0.10300
H1776       H  0.67670473  0.38038954  0.51769091     0.10400
H1777       H  0.62628381  0.46037528  0.52213331     0.10000
H1778       H  0.59122152  0.42873697  0.53228654     0.11100
H1779       H  0.69613323  0.43575464  0.51386840     0.11200
H1780       H  0.64723006  0.46424648  0.50053277     0.13100
H1781       H  0.66636831  0.47562547  0.47840835     0.09700
H1782       H  0.70022573  0.50340575  0.46571138     0.11700
H1783       H  0.75031664  0.51495813  0.49859141     0.08400
H1784       H  0.71693270  0.48653180  0.51111973     0.11100
C1785       C  0.52788772  0.65357555  0.43147278    -0.03500
C1786       C  0.53414946  0.62212930  0.43170518    -0.06100
C1787       C  0.56024172  0.61208919  0.42865489    -0.21200
C1788       C  0.58065437  0.63320563  0.42534171     0.24500
C1789       C  0.57396371  0.66450863  0.42432493    -0.18700
C1790       C  0.54785120  0.67459883  0.42745045    -0.08700
C1791       C  0.60883708  0.62169768  0.42386061    -0.19000
C1792       C  0.63100828  0.63891513  0.42637594    -0.23800
C1793       C  0.65867378  0.62587052  0.42795498     0.26600
C1794       C  0.68127516  0.64564428  0.42737414    -0.20600
C1795       C  0.70727063  0.63504527  0.43039928    -0.10200
C1796       C  0.71114829  0.60442922  0.43417869    -0.10700
C1797       C  0.68863728  0.58443014  0.43439247    -0.03700
C1798       C  0.66272550  0.59500067  0.43138083    -0.18800
H1799       H  0.51925665  0.60536896  0.43481925     0.10300
H1800       H  0.56482144  0.58784746  0.42945220     0.10400
H1801       H  0.58888703  0.68133355  0.42135378     0.10000
H1802       H  0.54346204  0.69892964  0.42700428     0.11100
H1803       H  0.61111603  0.59741398  0.42189079     0.11200
H1804       H  0.62879529  0.66325449  0.42825859     0.13100
H1805       H  0.67869693  0.66958324  0.42488548     0.09700
H1806       H  0.72415676  0.65108186  0.43015155     0.11700
H1807       H  0.69081658  0.56075567  0.43733898     0.08400
H1808       H  0.64588757  0.57915128  0.43238508     0.11100
C1809       C  0.82309823  0.57165778  0.41440021    -0.03500
C1810       C  0.81195766  0.55217779  0.40520079    -0.06100
C1811       C  0.82326376  0.55080529  0.39315664    -0.21200
C1812       C  0.84642802  0.56815619  0.39010627     0.24500
C1813       C  0.85788959  0.58741055  0.39928918    -0.18700
C1814       C  0.84618458  0.58936814  0.41127941    -0.08700
C1815       C  0.85729669  0.56700229  0.37709779    -0.19000
C1816       C  0.88409015  0.56591976  0.37453445    -0.23800
C1817       C  0.89504088  0.56473437  0.36151108     0.26600
C1818       C  0.91927235  0.54882545  0.35913992    -0.20600
C1819       C  0.93093671  0.54892349  0.34713582    -0.10200
C1820       C  0.91897869  0.56564006  0.33730480    -0.10700
C1821       C  0.89455622  0.58132549  0.33965967    -0.03700
C1822       C  0.88262188  0.58071548  0.35159932    -0.18800
H1823       H  0.79407439  0.53842773  0.40721957     0.10300
H1824       H  0.81396025  0.53601262  0.38620048     0.10400
H1825       H  0.87545568  0.60152322  0.39709510     0.10000
H1826       H  0.85518733  0.60475515  0.41809906     0.11100
H1827       H  0.84275673  0.56512613  0.36947603     0.11200
H1828       H  0.89844594  0.56456837  0.38225028     0.13100
H1829       H  0.92930737  0.53647266  0.36662815     0.09700
H1830       H  0.94985348  0.53680024  0.34567066     0.11700
H1831       H  0.88486887  0.59448895  0.33230827     0.08400
H1832       H  0.86421877  0.59371120  0.35316554     0.11100
C1833       C  0.01762690  0.50879933  0.27142711    -0.03500
C1834       C  0.02928126  0.48232612  0.27670022    -0.06100
C1835       C  0.04628188  0.46337608  0.26960472    -0.21200
C1836       C  0.05215763  0.47008514  0.25699395     0.24500
C1837       C  0.04126311  0.49713312  0.25176700    -0.18700
C1838       C  0.02415792  0.51618821  0.25890099    -0.08700
C1839       C  0.06977257  0.44813131  0.24989008    -0.19000
C1840       C  0.07250395  0.44719843  0.23726819    -0.23800
C1841       C  0.09006005  0.42431429  0.23066202     0.26600
C1842       C  0.10136096  0.43189416  0.21894167    -0.20600
C1843       C  0.11949088  0.41193920  0.21291768    -0.10200
C1844       C  0.12650671  0.38362710  0.21839741    -0.10700
C1845       C  0.11370626  0.37515557  0.22971583    -0.03700
C1846       C  0.09573180  0.39518649  0.23576580    -0.18800
H1847       H  0.02478625  0.47575209  0.28628336     0.10300
H1848       H  0.05447854  0.44292686  0.27396156     0.10400
H1849       H  0.04577952  0.50376357  0.24221482     0.10000
H1850       H  0.01572470  0.53648597  0.25453670     0.11100
H1851       H  0.08075980  0.43145354  0.25547714     0.11200
H1852       H  0.06229082  0.46410954  0.23150839     0.13100
H1853       H  0.09700673  0.45390201  0.21466037     0.09700
H1854       H  0.12889320  0.41931107  0.20422477     0.11700
H1855       H  0.11845337  0.35352935  0.23421876     0.08400
H1856       H  0.08656691  0.38783023  0.24450038     0.11100
C1857       C  0.03258637  0.59755502  0.32049654    -0.03500
C1858       C  0.05279160  0.57561846  0.32288623    -0.06100
C1859       C  0.07919961  0.58482405  0.32582277    -0.21200
C1860       C  0.08605804  0.61607126  0.32623453     0.24500
C1861       C  0.06542885  0.63809003  0.32474925    -0.18700
C1862       C  0.03887740  0.62886009  0.32191811    -0.08700
C1863       C  0.11516338  0.62450513  0.32731421    -0.19000
C1864       C  0.12565684  0.64990258  0.32195558    -0.23800
C1865       C  0.15524671  0.65564773  0.32070423     0.26600
C1866       C  0.16429039  0.68591697  0.31897925    -0.20600
C1867       C  0.19159064  0.69210580  0.31641497    -0.10200
C1868       C  0.21045135  0.66804465  0.31539599    -0.10700
C1869       C  0.20153665  0.63773862  0.31741137    -0.03700
C1870       C  0.17418780  0.63155200  0.31998579    -0.18800
H1871       H  0.04843994  0.55130220  0.32202778     0.10300
H1872       H  0.09465570  0.56744642  0.32709760     0.10400
H1873       H  0.06980877  0.66239423  0.32546837     0.10000
H1874       H  0.02363995  0.64625735  0.32022944     0.11100
H1875       H  0.12863890  0.60775835  0.33153549     0.11200
H1876       H  0.11224006  0.66667500  0.31771187     0.13100
H1877       H  0.15005815  0.70481690  0.31936699     0.09700
H1878       H  0.19776104  0.71573014  0.31489825     0.11700
H1879       H  0.21546352  0.61867250  0.31650540     0.08400
H1880       H  0.16785907  0.60781627  0.32081834     0.11100
C1881       C  0.08110180  0.03387872  0.21483827    -0.03500
C1882       C  0.10361107  0.03680798  0.22282464    -0.06100
C1883       C  0.11713676  0.06508758  0.22388142    -0.21200
C1884       C  0.10776636  0.09094265  0.21730798     0.24500
C1885       C  0.08492412  0.08798266  0.20951413    -0.18700
C1886       C  0.07186966  0.05971688  0.20823943    -0.08700
C1887       C  0.12339993  0.12005195  0.21772384    -0.19000
C1888       C  0.11164326  0.14769745  0.21630769    -0.23800
C1889       C  0.12773221  0.17615441  0.21454193     0.26600
C1890       C  0.11820687  0.20404283  0.21941567    -0.20600
C1891       C  0.13292499  0.23125463  0.21750248    -0.10200
C1892       C  0.15681187  0.23108602  0.21027495    -0.10700
C1893       C  0.16590453  0.20329236  0.20512668    -0.03700
C1894       C  0.15164050  0.17604114  0.20732284    -0.18800
H1895       H  0.11106966  0.01714005  0.22798703     0.10300
H1896       H  0.13494377  0.06680165  0.22980629     0.10400
H1897       H  0.07763755  0.10721834  0.20404751     0.10000
H1898       H  0.05439910  0.05807494  0.20209666     0.11100
H1899       H  0.14527549  0.11863894  0.21896509     0.11200
H1900       H  0.08963378  0.14957620  0.21634424     0.13100
H1901       H  0.09959434  0.20465934  0.22484767     0.09700
H1902       H  0.12556861  0.25244436  0.22157038     0.11700
H1903       H  0.18441036  0.20253529  0.19961860     0.08400
H1904       H  0.15904945  0.15498724  0.20316495     0.11100
C1905       C  0.98354205  0.66130786  0.27327418    -0.03500
C1906       C  0.00320057  0.68057977  0.27874966    -0.06100
C1907       C  0.00888783  0.70943422  0.27358993    -0.21200
C1908       C  0.99475972  0.71989775  0.26298924     0.24500
C1909       C  0.97571620  0.70007315  0.25727123    -0.18700
C1910       C  0.97023452  0.67110351  0.26236864    -0.08700
C1911       C  0.00098241  0.75123491  0.25811448    -0.19000
C1912       C  0.98528374  0.76634343  0.24982359    -0.23800
C1913       C  0.99315398  0.79635128  0.24428210     0.26600
C1914       C  0.98540021  0.80260218  0.23190198    -0.20600
C1915       C  0.99420800  0.82938589  0.22593055    -0.10200
C1916       C  0.01056934  0.85083133  0.23230371    -0.10700
C1917       C  0.01690669  0.84557028  0.24497006    -0.03700
C1918       C  0.00838783  0.81845432  0.25090656    -0.18800
H1919       H  0.01369869  0.67362827  0.28720812     0.10300
H1920       H  0.02391035  0.72396138  0.27809571     0.10400
H1921       H  0.96489876  0.70656194  0.24888033     0.10000
H1922       H  0.95471637  0.65687830  0.25806621     0.11100
H1923       H  0.01954515  0.76210538  0.26142105     0.11200
H1924       H  0.96683916  0.75584064  0.24627447     0.13100
H1925       H  0.97337337  0.78612423  0.22666551     0.09700
H1926       H  0.98876111  0.83294910  0.21619500     0.11700
H1927       H  0.02940895  0.86174554  0.25011643     0.08400
H1928       H  0.01394112  0.81473924  0.26060743     0.11100
C1929       C  0.12052454  0.88815246  0.22513119    -0.03500
C1930       C  0.13217869  0.90058418  0.23608351    -0.06100
C1931       C  0.15271029  0.88497237  0.24248040    -0.21200
C1932       C  0.16210851  0.85649402  0.23816728     0.24500
C1933       C  0.15160489  0.84488925  0.22680591    -0.18700
C1934       C  0.13096256  0.86047474  0.22041560    -0.08700
C1935       C  0.18234888  0.83956307  0.24593591    -0.19000
C1936       C  0.18622038  0.80896052  0.24517544    -0.23800
C1937       C  0.20481122  0.79104933  0.25342101     0.26600
C1938       C  0.21179536  0.76119215  0.24970066    -0.20600
C1939       C  0.22833611  0.74281222  0.25721624    -0.10200
C1940       C  0.23819663  0.75370309  0.26876681    -0.10700
C1941       C  0.23105200  0.78349713  0.27260232    -0.03700
C1942       C  0.21456548  0.80201865  0.26502458    -0.18800
H1943       H  0.12471063  0.92185198  0.24003102     0.10300
H1944       H  0.16059948  0.89470388  0.25109962     0.10400
H1945       H  0.15896782  0.82367631  0.22282636     0.10000
H1946       H  0.12258394  0.85029801  0.21199093     0.11100
H1947       H  0.19343618  0.85278486  0.25288254     0.11200
H1948       H  0.17493328  0.79582950  0.23827268     0.13100
H1949       H  0.20444477  0.75199321  0.24088402     0.09700
H1950       H  0.23338442  0.71998688  0.25395680     0.11700
H1951       H  0.23838431  0.79262307  0.28142730     0.08400
H1952       H  0.20920562  0.82454300  0.26844838     0.11100
C1953       C  0.15850200  0.02892129  0.03938008    -0.03500
C1954       C  0.14425654  0.04008892  0.04983027    -0.06100
C1955       C  0.13043077  0.06789915  0.04914820    -0.21200
C1956       C  0.13097872  0.08539791  0.03810409     0.24500
C1957       C  0.14399148  0.07348384  0.02741009    -0.18700
C1958       C  0.15757770  0.04537585  0.02804769    -0.08700
C1959       C  0.11857193  0.11629289  0.03839475    -0.19000
C1960       C  0.12653030  0.13972262  0.03097638    -0.23800
C1961       C  0.11595287  0.17120525  0.03274389     0.26600
C1962       C  0.10927927  0.18224423  0.04473740    -0.20600
C1963       C  0.09768006  0.21114298  0.04616847    -0.10200
C1964       C  0.09260223  0.22974744  0.03565870    -0.10700
C1965       C  0.10097048  0.21956196  0.02375197    -0.03700
C1966       C  0.11269596  0.19054282  0.02233130    -0.18800
H1967       H  0.14440347  0.02770580  0.05864820     0.10300
H1968       H  0.12023883  0.07640278  0.05745902     0.10400
H1969       H  0.14404204  0.08588009  0.01861502     0.10000
H1970       H  0.16833399  0.03719890  0.01983924     0.11100
H1971       H  0.10354036  0.12044131  0.04566652     0.11200
H1972       H  0.14115361  0.13607484  0.02350617     0.13100
H1973       H  0.11277474  0.16849780  0.05303963     0.09700
H1974       H  0.09192845  0.21849640  0.05550344     0.11700
H1975       H  0.09743096  0.23341870  0.01547867     0.08400
H1976       H  0.11824217  0.18270496  0.01303503     0.11100
C1977       C  0.26368996  0.66391727  0.98059145    -0.03500
C1978       C  0.24496040  0.68368224  0.97481011    -0.06100
C1979       C  0.23910512  0.71228078  0.98002967    -0.21200
C1980       C  0.25214183  0.72202159  0.99101549     0.24500
C1981       C  0.27005733  0.70179154  0.99712072    -0.18700
C1982       C  0.27570750  0.67294140  0.99196015    -0.08700
C1983       C  0.24599447  0.75310672  0.99592361    -0.19000
C1984       C  0.26369937  0.76982279  0.00274267    -0.23800
C1985       C  0.25689528  0.80028687  0.00814207     0.26600
C1986       C  0.27015628  0.80966396  0.01913676    -0.20600
C1987       C  0.26253331  0.83668510  0.02522906    -0.10200
C1988       C  0.24182894  0.85523855  0.02029558    -0.10700
C1989       C  0.22978176  0.84695420  0.00884437    -0.03700
C1990       C  0.23720278  0.81971557  0.00281780    -0.18800
H1991       H  0.23539568  0.67739833  0.96602600     0.10300
H1992       H  0.22496154  0.72726223  0.97524876     0.10400
H1993       H  0.27977807  0.70815267  0.00584235     0.10000
H1994       H  0.29038486  0.65830751  0.99656599     0.11100
H1995       H  0.22622545  0.76250626  0.99363940     0.11200
H1996       H  0.28345683  0.76031838  0.00500491     0.13100
H1997       H  0.28566570  0.79536499  0.02332376     0.09700
H1998       H  0.27228406  0.84259466  0.03401182     0.11700
H1999       H  0.21374075  0.86079029  0.00483426     0.08400
H2000       H  0.22724298  0.81386726  0.99409778     0.11100
C2001       C  0.17079760  0.93252293  0.08712387    -0.03500
C2002       C  0.15916889  0.90477093  0.09134651    -0.06100
C2003       C  0.14656540  0.90285483  0.10310905    -0.21200
C2004       C  0.14474913  0.92867951  0.11094341     0.24500
C2005       C  0.15618395  0.95660492  0.10671902    -0.18700
C2006       C  0.16910981  0.95845321  0.09496624    -0.08700
C2007       C  0.13183068  0.92504108  0.12359223    -0.19000
C2008       C  0.12067169  0.94835223  0.13015909    -0.23800
C2009       C  0.10716632  0.94469227  0.14268954     0.26600
C2010       C  0.08883971  0.96734277  0.14668812    -0.20600
C2011       C  0.07582159  0.96518508  0.15836778    -0.10200
C2012       C  0.08092789  0.94037066  0.16648729    -0.10700
C2013       C  0.09964443  0.91789236  0.16258851    -0.03700
C2014       C  0.11261393  0.92000470  0.15086178    -0.18800
H2015       H  0.16024237  0.88422485  0.08565084     0.10300
H2016       H  0.13818068  0.88099297  0.10610841     0.10400
H2017       H  0.15585490  0.97687629  0.11257340     0.10000
H2018       H  0.17797932  0.98014124  0.09206771     0.11100
H2019       H  0.13031679  0.90186205  0.12728353     0.11200
H2020       H  0.12012111  0.97103391  0.12593909     0.13100
H2021       H  0.08435268  0.98674934  0.14068230     0.09700
H2022       H  0.06159589  0.98296508  0.16099793     0.11700
H2023       H  0.10422250  0.89851074  0.16858524     0.08400
H2024       H  0.12713908  0.90247630  0.14835590     0.11100
C2025       C  0.02154783  0.74853189  0.98189920    -0.03500
C2026       C  0.03052399  0.73585370  0.99330944    -0.06100
C2027       C  0.04856723  0.75194788  0.00100632    -0.21200
C2028       C  0.05773351  0.78132433  0.99763393     0.24500
C2029       C  0.04950442  0.79376220  0.98604481    -0.18700
C2030       C  0.03164912  0.77743713  0.97822879    -0.08700
C2031       C  0.07637131  0.79787260  0.00629364    -0.19000
C2032       C  0.07660589  0.82868661  0.00748036    -0.23800
C2033       C  0.09563822  0.84607300  0.01576498     0.26600
C2034       C  0.09888525  0.87767910  0.01363773    -0.20600
C2035       C  0.11810346  0.89471111  0.02034123    -0.10200
C2036       C  0.13459393  0.88059330  0.02943060    -0.10700
C2037       C  0.13021944  0.84934565  0.03214021    -0.03700
C2038       C  0.11090524  0.83225672  0.02541796    -0.18800
H2039       H  0.02328691  0.71356806  0.99640512     0.10300
H2040       H  0.05487639  0.74170262  0.00979422     0.10400
H2041       H  0.05690815  0.81597871  0.98297768     0.10000
H2042       H  0.02516577  0.78780699  0.96949939     0.11100
H2043       H  0.08964833  0.78388514  0.01201735     0.11200
H2044       H  0.06269334  0.84207176  0.00179282     0.13100
H2045       H  0.08719326  0.88908698  0.00641327     0.09700
H2046       H  0.12077152  0.91875513  0.01800789     0.11700
H2047       H  0.14244989  0.83776781  0.03911581     0.08400
H2048       H  0.10844237  0.80824618  0.02774181     0.11100
C2049       C  0.08801225  0.72414014  0.53925846    -0.03500
C2050       C  0.11192961  0.72409701  0.53205433    -0.06100
C2051       C  0.12634250  0.69680666  0.53027625    -0.21200
C2052       C  0.11648073  0.66908294  0.53527492     0.24500
C2053       C  0.09243890  0.66916315  0.54239585    -0.18700
C2054       C  0.07846351  0.69647818  0.54444392    -0.08700
C2055       C  0.13247028  0.64065585  0.53385046    -0.19000
C2056       C  0.12062212  0.61288443  0.53271397    -0.23800
C2057       C  0.13613218  0.58396627  0.53367219     0.26600
C2058       C  0.12725574  0.55771145  0.52718587    -0.20600
C2059       C  0.14066188  0.52963700  0.52872769    -0.10200
C2060       C  0.16251349  0.52730496  0.53711806    -0.10700
C2061       C  0.17122390  0.55356555  0.54364454    -0.03700
C2062       C  0.15831163  0.58163698  0.54188461    -0.18800
H2063       H  0.11957622  0.74518219  0.52792491     0.10300
H2064       H  0.14503833  0.69724929  0.52489993     0.10400
H2065       H  0.08475125  0.64823886  0.54663505     0.10000
H2066       H  0.05987395  0.69588044  0.54989971     0.11100
H2067       H  0.15449016  0.64262202  0.53395181     0.11200
H2068       H  0.09878344  0.61123609  0.53134335     0.13100
H2069       H  0.10994948  0.55896544  0.52094218     0.09700
H2070       H  0.13361397  0.50966085  0.52360438     0.11700
H2071       H  0.18819009  0.55241670  0.55009172     0.08400
H2072       H  0.16516682  0.60124694  0.54728342     0.11100
C2073       C  0.23235198  0.00384161  0.48140974    -0.03500
C2074       C  0.21627543  0.98138564  0.47546292    -0.06100
C2075       C  0.19922862  0.96203723  0.48242747    -0.21200
C2076       C  0.19769829  0.96436583  0.49555160     0.24500
C2077       C  0.21318048  0.98746633  0.50152229    -0.18700
C2078       C  0.23023537  0.00698000  0.49451323    -0.08700
C2079       C  0.18019181  0.94165691  0.50240398    -0.19000
C2080       C  0.17615357  0.94088946  0.51493625    -0.23800
C2081       C  0.15778052  0.91803566  0.52109375     0.26600
C2082       C  0.14381162  0.92644353  0.53204023    -0.20600
C2083       C  0.12456274  0.90664870  0.53743711    -0.10200
C2084       C  0.11904967  0.87772941  0.53208538    -0.10700
C2085       C  0.13450269  0.86842406  0.52165209    -0.03700
C2086       C  0.15364733  0.88832727  0.51621434    -0.18800
H2087       H  0.21718389  0.97832362  0.46539147     0.10300
H2088       H  0.18749647  0.94472083  0.47750588     0.10400
H2089       H  0.21273239  0.99040213  0.51157387     0.10000
H2090       H  0.24230753  0.02401603  0.49941125     0.11100
H2091       H  0.16963287  0.92480592  0.49667234     0.11200
H2092       H  0.18500908  0.95843540  0.52087644     0.13100
H2093       H  0.14692459  0.94896802  0.53612208     0.09700
H2094       H  0.11316386  0.91459909  0.54549205     0.11700
H2095       H  0.13099364  0.84624986  0.51733338     0.08400
H2096       H  0.16485877  0.88054523  0.50808643     0.11100
C2097       C  0.98274321  0.75218710  0.52131305    -0.03500
C2098       C  0.98702174  0.74759864  0.50841214    -0.06100
C2099       C  0.97049275  0.72737354  0.50161626    -0.21200
C2100       C  0.94894429  0.71162847  0.50754987     0.24500
C2101       C  0.94443129  0.71671037  0.52040162    -0.18700
C2102       C  0.96115383  0.73665900  0.52721962    -0.08700
C2103       C  0.93123991  0.68904327  0.50090817    -0.19000
C2104       C  0.92959221  0.68628103  0.48832280    -0.23800
C2105       C  0.91045521  0.66459847  0.48210005     0.26600
C2106       C  0.89990915  0.67217755  0.47027291    -0.20600
C2107       C  0.87983842  0.65385343  0.46469974    -0.10200
C2108       C  0.87024916  0.62721658  0.47076125    -0.10700
C2109       C  0.88227165  0.61849672  0.48218755    -0.03700
C2110       C  0.90212861  0.63696163  0.48780127    -0.18800
H2111       H  0.00382849  0.75878292  0.50364836     0.10300
H2112       H  0.97527276  0.72367728  0.49184189     0.10400
H2113       H  0.92805872  0.70489900  0.52524186     0.10000
H2114       H  0.95738886  0.73963893  0.53715710     0.11100
H2115       H  0.91800068  0.67497531  0.50673034     0.11200
H2116       H  0.94083984  0.70189424  0.48230574     0.13100
H2117       H  0.90632183  0.69308882  0.46558808     0.09700
H2118       H  0.87108920  0.66120185  0.45588452     0.11700
H2119       H  0.87544587  0.59810974  0.48712122     0.08400
H2120       H  0.91057949  0.62973879  0.49668675     0.11100
C2121       C  0.77541580  0.90201130  0.56767890    -0.03500
C2122       C  0.77934200  0.87020550  0.56897514    -0.06100
C2123       C  0.80554653  0.85816342  0.56997359    -0.21200
C2124       C  0.82840894  0.87757948  0.56988883     0.24500
C2125       C  0.82442558  0.90953814  0.56906334    -0.18700
C2126       C  0.79822056  0.92156896  0.56798132    -0.08700
C2127       C  0.85591658  0.86347917  0.56959090    -0.19000
C2128       C  0.87887426  0.87848328  0.57287324    -0.23800
C2129       C  0.90679491  0.86570453  0.57146563     0.26600
C2130       C  0.92895887  0.88606176  0.57219792    -0.20600
C2131       C  0.95549150  0.87581311  0.57018362    -0.10200
C2132       C  0.96058509  0.84480636  0.56741322    -0.10700
C2133       C  0.93854128  0.82411991  0.56716992    -0.03700
C2134       C  0.91197291  0.83437035  0.56920891    -0.18800
H2135       H  0.76225767  0.85445099  0.56862813     0.10300
H2136       H  0.80800521  0.83347818  0.57050576     0.10400
H2137       H  0.84141190  0.92533807  0.56861960     0.10000
H2138       H  0.79590673  0.94615938  0.56690655     0.11100
H2139       H  0.85695263  0.84000948  0.56626835     0.11200
H2140       H  0.87743650  0.90179823  0.57638349     0.13100
H2141       H  0.92569032  0.91025379  0.57400633     0.09700
H2142       H  0.97192750  0.89242963  0.57042694     0.11700
H2143       H  0.94171603  0.80004243  0.56511059     0.08400
H2144       H  0.89577780  0.81756192  0.56892171     0.11100
C2145       C  0.15633120  0.72713981  0.71276188    -0.03500
C2146       C  0.13809742  0.72281473  0.72278680    -0.06100
C2147       C  0.12530904  0.69429535  0.72455141    -0.21200
C2148       C  0.13132228  0.66958548  0.71659050     0.24500
C2149       C  0.14944182  0.67393783  0.70659492    -0.18700
C2150       C  0.16163943  0.70241048  0.70464696    -0.08700
C2151       C  0.11728899  0.63983385  0.71809017    -0.19000
C2152       C  0.13047759  0.61308775  0.71671044    -0.23800
C2153       C  0.11554170  0.58389781  0.71545430     0.26600
C2154       C  0.12311695  0.55806067  0.72246743    -0.20600
C2155       C  0.10880046  0.53036762  0.72114515    -0.10200
C2156       C  0.08749968  0.52802144  0.71242607    -0.10700
C2157       C  0.08067845  0.55373707  0.70513048    -0.03700
C2158       C  0.09438485  0.58148799  0.70672205    -0.18800
H2159       H  0.13378553  0.74137060  0.72923892     0.10300
H2160       H  0.11107744  0.69135210  0.73222464     0.10400
H2161       H  0.15384969  0.65539582  0.70014303     0.10000
H2162       H  0.17575765  0.70478520  0.69689884     0.11100
H2163       H  0.09552283  0.63987813  0.71984696     0.11200
H2164       H  0.15251183  0.61272750  0.71601311     0.13100
H2165       H  0.13968972  0.55952889  0.72911847     0.09700
H2166       H  0.11444005  0.51080895  0.72684664     0.11700
H2167       H  0.06425066  0.55261960  0.69838961     0.08400
H2168       H  0.08867027  0.60104401  0.70102734     0.11100
C2169       C  0.16711243  0.81552076  0.66507617    -0.03500
C2170       C  0.14188437  0.83046190  0.66436340    -0.06100
C2171       C  0.12576433  0.82798473  0.65361634    -0.21200
C2172       C  0.13480119  0.81127817  0.64318699     0.24500
C2173       C  0.15990840  0.79596614  0.64390644    -0.18700
C2174       C  0.17578634  0.79781812  0.65481270    -0.08700
C2175       C  0.11742337  0.81001515  0.63178738    -0.19000
C2176       C  0.12778586  0.81010059  0.62008589    -0.23800
C2177       C  0.11066068  0.81138919  0.60859526     0.26600
C2178       C  0.12094778  0.82628949  0.59790998    -0.20600
C2179       C  0.10543311  0.82828712  0.58695725    -0.10200
C2180       C  0.07950032  0.81469130  0.58631971    -0.10700
C2181       C  0.06944844  0.79895341  0.59688338    -0.03700
C2182       C  0.08475878  0.79755612  0.60796606    -0.18800
H2183       H  0.13449074  0.84391654  0.67218932     0.10300
H2184       H  0.10639453  0.83970816  0.65334802     0.10400
H2185       H  0.16712293  0.78231300  0.63611130     0.10000
H2186       H  0.19505365  0.78591103  0.65513433     0.11100
H2187       H  0.09557409  0.81174991  0.63307034     0.11200
H2188       H  0.14968507  0.81165716  0.61887288     0.13100
H2189       H  0.14092497  0.83686438  0.59810181     0.09700
H2190       H  0.11383328  0.84028209  0.57892197     0.11700
H2191       H  0.04955724  0.78820183  0.59664024     0.08400
H2192       H  0.07648607  0.78527215  0.61594451     0.11100
C2193       C  0.00862297  0.00302348  0.76705710    -0.03500
C2194       C  0.02039812  0.97680974  0.77245266    -0.06100
C2195       C  0.03819677  0.95840131  0.76554611    -0.21200
C2196       C  0.04476802  0.96546031  0.75302869     0.24500
C2197       C  0.03335405  0.99201678  0.74764172    -0.18700
C2198       C  0.01548753  0.01051177  0.75458307    -0.08700
C2199       C  0.06357372  0.94428628  0.74620819    -0.19000
C2200       C  0.06966967  0.94544993  0.73383572    -0.23800
C2201       C  0.08872281  0.92323099  0.72779242     0.26600
C2202       C  0.10438750  0.93252755  0.71741278    -0.20600
C2203       C  0.12418781  0.91301919  0.71230894    -0.10200
C2204       C  0.12848509  0.88354387  0.71737403    -0.10700
C2205       C  0.11136439  0.87351300  0.72715702    -0.03700
C2206       C  0.09175452  0.89303224  0.73228419    -0.18800
H2207       H  0.01559917  0.97019847  0.78199959     0.10300
H2208       H  0.04666148  0.93823105  0.77000773     0.10400
H2209       H  0.03801598  0.99874608  0.73812346     0.10000
H2210       H  0.00684665  0.03056835  0.75011778     0.11100
H2211       H  0.07303530  0.92656323  0.75185816     0.24000
H2212       H  0.06157279  0.96362445  0.72800736     0.13100
H2213       H  0.10211757  0.95542824  0.71358389     0.09700
H2214       H  0.13683694  0.92149974  0.70472832     0.11700
H2215       H  0.11378349  0.85088837  0.73122368     0.08400
H2216       H  0.07923257  0.88444539  0.73987762     0.11100
C2217       C  0.38115469  0.63364751  0.77841376    -0.03500
C2218       C  0.38353572  0.66573403  0.77971642    -0.06100
C2219       C  0.36698688  0.68552033  0.77282879    -0.21200
C2220       C  0.34712520  0.67381250  0.76471666     0.24500
C2221       C  0.34399716  0.64177209  0.76364633    -0.18700
C2222       C  0.36106788  0.62185374  0.77033323    -0.08700
C2223       C  0.33136600  0.69556812  0.75687441    -0.19000
C2224       C  0.30491067  0.69149741  0.75420599    -0.23800
C2225       C  0.28945031  0.71399605  0.74661320     0.26600
C2226       C  0.26330370  0.72255816  0.75045639    -0.20600
C2227       C  0.24804449  0.74310899  0.74327707    -0.10200
C2228       C  0.25825709  0.75456405  0.73187296    -0.10700
C2229       C  0.28432200  0.74577716  0.72792806    -0.03700
C2230       C  0.30000193  0.72603410  0.73534951    -0.18800
H2231       H  0.39909086  0.67571020  0.78565480     0.10300
H2232       H  0.36991052  0.71009265  0.77373218     0.10400
H2233       H  0.32915192  0.63213599  0.75725173     0.10000
H2234       H  0.35899235  0.59732221  0.76896041     0.11100
H2235       H  0.34146199  0.71651936  0.75379156     0.11200
H2236       H  0.29390329  0.67232226  0.75835511     0.13100
H2237       H  0.25472909  0.71339316  0.75905306     0.09700
H2238       H  0.22780645  0.74918772  0.74640040     0.11700
H2239       H  0.29247755  0.75412947  0.71911162     0.08400
H2240       H  0.31999734  0.71939382  0.73210500     0.11100
C2241       C  0.28757778  0.83883357  0.68326824    -0.03500
C2242       C  0.30765595  0.81595812  0.68400901    -0.06100
C2243       C  0.33483954  0.82285593  0.68142415    -0.21200
C2244       C  0.34272485  0.85278102  0.67814600     0.24500
C2245       C  0.32250595  0.87531987  0.67668801    -0.18700
C2246       C  0.29522280  0.86840860  0.67926307    -0.08700
C2247       C  0.37225635  0.85970084  0.67695607    -0.19000
C2248       C  0.38286062  0.88754870  0.67958042    -0.23800
C2249       C  0.41245358  0.89437966  0.68084681     0.26600
C2250       C  0.42021620  0.92506751  0.68275833    -0.20600
C2251       C  0.44701794  0.93268208  0.68571714    -0.10200
C2252       C  0.46687978  0.90974642  0.68685228    -0.10700
C2253       C  0.45959038  0.87916239  0.68427113    -0.03700
C2254       C  0.43264096  0.87147947  0.68134053    -0.18800
H2255       H  0.30255169  0.79285182  0.68698985     0.10300
H2256       H  0.34993044  0.80499711  0.68249912     0.10400
H2257       H  0.32765527  0.89838432  0.67371364     0.10000
H2258       H  0.28025342  0.88645476  0.67845047     0.11100
H2259       H  0.38553361  0.84050965  0.67500762     0.11200
H2260       H  0.36913987  0.90622549  0.68179826     0.13100
H2261       H  0.40525260  0.94323122  0.68239671     0.09700
H2262       H  0.45195838  0.95653822  0.68752438     0.11700
H2263       H  0.47442115  0.86096485  0.68508505     0.08400
H2264       H  0.42779285  0.84748733  0.68003779     0.11100
C2265       C  0.40859633  0.28194469  0.95969901    -0.03500
C2266       C  0.39774418  0.29431741  0.94862516    -0.06100
C2267       C  0.38590501  0.32338875  0.94862620    -0.21200
C2268       C  0.38496846  0.34103064  0.95963195     0.24500
C2269       C  0.39476479  0.32810760  0.97086866    -0.18700
C2270       C  0.40639704  0.29878962  0.97088819    -0.08700
C2271       C  0.37368078  0.37262774  0.95880518    -0.19000
C2272       C  0.37757099  0.39482493  0.96744730    -0.23800
C2273       C  0.36612652  0.42616292  0.96599073     0.26600
C2274       C  0.35851826  0.44276855  0.97670691    -0.20600
C2275       C  0.34582641  0.47136839  0.97557181    -0.10200
C2276       C  0.34072048  0.48399722  0.96366769    -0.10700
C2277       C  0.34988304  0.46816668  0.95297968    -0.03700
C2278       C  0.36253136  0.43965538  0.95412070    -0.18800
H2279       H  0.39895780  0.28177750  0.93987058     0.10300
H2280       H  0.37817500  0.33251584  0.93987815     0.10400
H2281       H  0.39369811  0.34043220  0.97964725     0.10000
H2282       H  0.41462534  0.28982167  0.97956173     0.11100
H2283       H  0.36198414  0.37794804  0.95045688     0.11200
H2284       H  0.38861846  0.38998325  0.97600637     0.13100
H2285       H  0.36148264  0.43306590  0.98596324     0.09700
H2286       H  0.33908304  0.48299493  0.98398744     0.11700
H2287       H  0.34672957  0.47749335  0.94367371     0.08400
H2288       H  0.36926697  0.42816724  0.94567992     0.11100
C2289       C  0.51409087  0.25405356  0.97862501    -0.03500
C2290       C  0.52583153  0.27973285  0.97264455    -0.06100
C2291       C  0.54332412  0.29944327  0.97914863    -0.21200
C2292       C  0.54951386  0.29421563  0.99181585     0.24500
C2293       C  0.53845796  0.26800312  0.99773259    -0.18700
C2294       C  0.52087493  0.24824141  0.99121226    -0.08700
C2295       C  0.56792159  0.31639027  0.99830940    -0.19000
C2296       C  0.56991841  0.31922082  0.01088359    -0.23800
C2297       C  0.58884874  0.34124916  0.01709388     0.26600
C2298       C  0.59895922  0.33417927  0.02905918    -0.20600
C2299       C  0.61824110  0.35321257  0.03483908    -0.10200
C2300       C  0.62743419  0.38013970  0.02886847    -0.10700
C2301       C  0.61605614  0.38816049  0.01721696    -0.03700
C2302       C  0.59703564  0.36894751  0.01137977    -0.18800
H2303       H  0.52113996  0.28499953  0.96295880     0.10300
H2304       H  0.55172125  0.31921132  0.97429262     0.10400
H2305       H  0.54337789  0.26242788  0.00734137     0.10000
H2306       H  0.51240993  0.22854112  0.99607354     0.11100
H2307       H  0.58018115  0.33124121  0.99235847     0.11200
H2308       H  0.55807818  0.30428833  0.01695494     0.13100
H2309       H  0.59268940  0.31322012  0.03375140     0.09700
H2310       H  0.62657578  0.34633786  0.04380236     0.11700
H2311       H  0.62270503  0.40867955  0.01232041     0.08400
H2312       H  0.58897210  0.37580658  0.00237460     0.11100
C2313       C  0.71428837  0.10579056  0.93045704    -0.03500
C2314       C  0.70887288  0.13742205  0.92999521    -0.06100
C2315       C  0.68292687  0.14778325  0.92689236    -0.21200
C2316       C  0.66207435  0.12672381  0.92423734     0.24500
C2317       C  0.66814955  0.09523825  0.92363127    -0.18700
C2318       C  0.69399150  0.08486633  0.92681917    -0.08700
C2319       C  0.63389676  0.13807041  0.92325357    -0.19000
C2320       C  0.61261747  0.12147402  0.92746673    -0.23800
C2321       C  0.58492709  0.13397914  0.92909653     0.26600
C2322       C  0.56307716  0.11335343  0.93024537    -0.20600
C2323       C  0.53699588  0.12397332  0.93295646    -0.10200
C2324       C  0.53233777  0.15549931  0.93471580    -0.10700
C2325       C  0.55417282  0.17618280  0.93343662    -0.03700
C2326       C  0.58019936  0.16557960  0.93068870    -0.18800
H2327       H  0.72423733  0.15406005  0.93266930     0.10300
H2328       H  0.67874321  0.17218662  0.92726727     0.10400
H2329       H  0.65281132  0.07851604  0.92105961     0.10000
H2330       H  0.69786936  0.06039395  0.92677714     0.11100
H2331       H  0.63110891  0.16166145  0.92023079     0.11200
H2332       H  0.61571909  0.09797863  0.93057872     0.13100
H2333       H  0.56629708  0.08886276  0.92924852     0.09700
H2334       H  0.52066265  0.10740586  0.93402371     0.11700
H2335       H  0.55131061  0.20058485  0.93485787     0.08400
H2336       H  0.59659205  0.18217581  0.93035101     0.11100
C2337       C  0.37278053  0.13474835  0.97029703    -0.03500
C2338       C  0.36518837  0.10631906  0.96504293    -0.06100
C2339       C  0.34558183  0.08781272  0.97085950    -0.21200
C2340       C  0.33339478  0.09706633  0.98212421     0.24500
C2341       C  0.33932846  0.12647492  0.98687137    -0.18700
C2342       C  0.35879266  0.14516305  0.98099231    -0.08700
C2343       C  0.31544066  0.07504600  0.98888398    -0.19000
C2344       C  0.31486401  0.07302786  0.00152001    -0.23800
C2345       C  0.29881933  0.04972407  0.00870259     0.26600
C2346       C  0.29463242  0.05440713  0.02160361    -0.20600
C2347       C  0.27895054  0.03378318  0.02868445    -0.10200
C2348       C  0.26722953  0.00774081  0.02304498    -0.10700
C2349       C  0.27247448  0.00228204  0.01025365    -0.03700
C2350       C  0.28808315  0.02293325  0.00317107    -0.18800
H2351       H  0.37540357  0.09756478  0.95679120     0.10300
H2352       H  0.34102189  0.06544843  0.96691527     0.10400
H2353       H  0.32947666  0.13473209  0.99529528     0.10000
H2354       H  0.36391523  0.16703006  0.98523152     0.11100
H2355       H  0.30400696  0.05891870  0.98320642     0.11200
H2356       H  0.32691568  0.08918694  0.00695430     0.13100
H2357       H  0.30303424  0.07451541  0.02618350     0.09700
H2358       H  0.27551826  0.03863485  0.03852026     0.11700
H2359       H  0.26400664  0.98231959  0.00560102     0.08400
H2360       H  0.29158626  0.01760656  0.99340743     0.11100
C2361       C  0.40579433  0.47616648  0.78885672    -0.03500
C2362       C  0.38851288  0.47141761  0.77855061    -0.06100
C2363       C  0.37528799  0.44312570  0.77695900    -0.21200
C2364       C  0.37989129  0.41895667  0.78539561     0.24500
C2365       C  0.39717961  0.42366183  0.79566288    -0.18700
C2366       C  0.40982877  0.45200920  0.79742567    -0.08700
C2367       C  0.36531280  0.38949002  0.78392069    -0.19000
C2368       C  0.37751779  0.36240715  0.78600144    -0.23800
C2369       C  0.36202457  0.33333395  0.78637621     0.26600
C2370       C  0.37280474  0.30668118  0.78094203    -0.20600
C2371       C  0.35859130  0.27879798  0.78171791    -0.10200
C2372       C  0.33400586  0.27710540  0.78838297    -0.10700
C2373       C  0.32348824  0.30374308  0.79395542    -0.03700
C2374       C  0.33722698  0.33166723  0.79285798    -0.18800
H2375       H  0.38514832  0.48955815  0.77177817     0.10300
H2376       H  0.36176437  0.43993450  0.76905522     0.10400
H2377       H  0.40054780  0.40556098  0.80245859     0.10000
H2378       H  0.42321474  0.45478402  0.80540533     0.11100
H2379       H  0.34406655  0.39006612  0.78116187     0.11200
H2380       H  0.39932217  0.36156240  0.78757002     0.13100
H2381       H  0.39207506  0.30754232  0.77602763     0.09700
H2382       H  0.36704521  0.25848174  0.77737262     0.11700
H2383       H  0.30445330  0.30300842  0.79907199     0.08400
H2384       H  0.32881621  0.35181788  0.79734956     0.11100
C2385       C  0.23679180  0.90440729  0.73032651    -0.03500
C2386       C  0.26053015  0.91944963  0.72623261    -0.06100
C2387       C  0.26944160  0.94625092  0.73217650    -0.21200
C2388       C  0.25438959  0.95886301  0.74207448     0.24500
C2389       C  0.23151576  0.94279359  0.74663137    -0.18700
C2390       C  0.22284911  0.91576017  0.74081514    -0.08700
C2391       C  0.26270943  0.98900069  0.74729675    -0.19000
C2392       C  0.24463449  0.00884766  0.75214065    -0.23800
C2393       C  0.25249351  0.03857589  0.75780006     0.26600
C2394       C  0.23693039  0.04977110  0.76781087    -0.20600
C2395       C  0.24445658  0.07679279  0.77393333    -0.10200
C2396       C  0.26723570  0.09360558  0.76988824    -0.10700
C2397       C  0.28208784  0.08328218  0.75946541    -0.03700
C2398       C  0.27489668  0.05582959  0.75350026    -0.18800
H2399       H  0.27174316  0.91094632  0.71821105     0.10300
H2400       H  0.28741788  0.95790862  0.72867185     0.10400
H2401       H  0.22006716  0.95119287  0.75458307     0.10000
H2402       H  0.20448700  0.90457486  0.74414165     0.11100
H2403       H  0.28408360  0.99523080  0.74680987     0.11200
H2404       H  0.22325153  0.00265082  0.75252181     0.13100
H2405       H  0.21942969  0.03699325  0.77118024     0.09700
H2406       H  0.23271211  0.08434200  0.78195487     0.11700
H2407       H  0.29987520  0.09578978  0.75625573     0.08400
H2408       H  0.28686005  0.04819090  0.74557720     0.11100
C2409       C  0.32663949  0.18725310  0.83599976    -0.03500
C2410       C  0.31525118  0.20590355  0.84537747    -0.06100
C2411       C  0.32729226  0.20797387  0.85723976    -0.21200
C2412       C  0.35130544  0.19201259  0.85995582     0.24500
C2413       C  0.36316913  0.17396410  0.85047940    -0.18700
C2414       C  0.35089959  0.17152799  0.83865644    -0.08700
C2415       C  0.36225543  0.19300403  0.87297869    -0.19000
C2416       C  0.38868105  0.18883263  0.87578828    -0.23800
C2417       C  0.39925556  0.18890347  0.88887255     0.26600
C2418       C  0.42609051  0.19855841  0.89104616    -0.20600
C2419       C  0.43708192  0.19781010  0.90314121    -0.10200
C2420       C  0.42173261  0.18652757  0.91329186    -0.10700
C2421       C  0.39493970  0.17657187  0.91113770    -0.03700
C2422       C  0.38370582  0.17800025  0.89906635    -0.18800
H2423       H  0.29653579  0.21821975  0.84367839     0.10300
H2424       H  0.31764922  0.22188956  0.86437590     0.10400
H2425       H  0.38134919  0.16079725  0.85229102     0.10000
H2426       H  0.36022248  0.15698448  0.83164341     0.11100
H2427       H  0.34808619  0.19834527  0.88047885     0.11200
H2428       H  0.40337118  0.18651926  0.86824230     0.13100
H2429       H  0.43857684  0.20676699  0.88335556     0.09700
H2430       H  0.45787526  0.20538883  0.90450823     0.11700
H2431       H  0.38268062  0.16777214  0.91879472     0.08400
H2432       H  0.36315085  0.16971681  0.89768057     0.11100
C2433       C  0.11732890  0.37679676  0.72288568    -0.03500
C2434       C  0.13409351  0.39049647  0.73199599    -0.06100
C2435       C  0.15285880  0.37295659  0.73875354    -0.21200
C2436       C  0.15541494  0.34120987  0.73666522     0.24500
C2437       C  0.13952915  0.32775825  0.72710548    -0.18700
C2438       C  0.12083258  0.34537264  0.72029752    -0.08700
C2439       C  0.17375983  0.32322859  0.74513505    -0.19000
C2440       C  0.17880666  0.29283181  0.74409021    -0.23800
C2441       C  0.19644844  0.27524501  0.75293999     0.26600
C2442       C  0.20810119  0.24764255  0.74881222    -0.20600
C2443       C  0.22504549  0.23050953  0.75667938    -0.10200
C2444       C  0.23053703  0.24030219  0.76899429    -0.10700
C2445       C  0.21806513  0.26735969  0.77331189    -0.03700
C2446       C  0.20124429  0.28464595  0.76539396    -0.18800
H2447       H  0.13199392  0.41460675  0.73427594     0.10300
H2448       H  0.16482758  0.38414344  0.74596110     0.10400
H2449       H  0.14055268  0.30352315  0.72504994     0.10000
H2450       H  0.10815184  0.33395806  0.71341977     0.11100
H2451       H  0.18356792  0.33592345  0.75263653     0.11200
H2452       H  0.17056509  0.28007555  0.73624716     0.13100
H2453       H  0.20448496  0.23954676  0.73935075     0.09700
H2454       H  0.23414870  0.20974513  0.75303435     0.11700
H2455       H  0.22175030  0.27557354  0.78274653     0.08400
H2456       H  0.19193122  0.30516022  0.76912127     0.11100
C2457       C  0.02789525  0.09449855  0.81309089    -0.03500
C2458       C  0.03201261  0.12327819  0.81873986    -0.06100
C2459       C  0.05826475  0.13337472  0.82169562    -0.21200
C2460       C  0.08100950  0.11503794  0.81906953     0.24500
C2461       C  0.07678761  0.08593654  0.81362988    -0.18700
C2462       C  0.05055619  0.07577247  0.81076378    -0.08700
C2463       C  0.10862925  0.12831991  0.82109186    -0.19000
C2464       C  0.13186372  0.11196907  0.82061946    -0.23800
C2465       C  0.15968643  0.12578294  0.82045839     0.26600
C2466       C  0.18217993  0.10597493  0.82037821    -0.20600
C2467       C  0.20852125  0.11740518  0.81854693    -0.10200
C2468       C  0.21296032  0.14898970  0.81669272    -0.10700
C2469       C  0.19069511  0.16899522  0.81743753    -0.03700
C2470       C  0.16439938  0.15761444  0.81927048    -0.18800
H2471       H  0.01501835  0.13830609  0.82063452     0.10300
H2472       H  0.06085632  0.15596752  0.82578728     0.10400
H2473       H  0.09353708  0.07125803  0.81107562     0.10000
H2474       H  0.04816289  0.05359812  0.80628961     0.11100
H2475       H  0.10948589  0.15283121  0.82273097     0.11200
H2476       H  0.13075370  0.08717778  0.81986612     0.13100
H2477       H  0.17928402  0.08138228  0.82126099     0.09700
H2478       H  0.22521226  0.10133061  0.81798810     0.11700
H2479       H  0.19342220  0.19348331  0.81610032     0.08400
H2480       H  0.14801596  0.17399513  0.81917762     0.11100
C2481       C  0.37217839  0.12696342  0.78073074    -0.03500
C2482       C  0.38855864  0.14028640  0.77135663    -0.06100
C2483       C  0.40905745  0.12332924  0.76552014    -0.21200
C2484       C  0.41363302  0.09252941  0.76877817     0.24500
C2485       C  0.39825985  0.07960447  0.77863507    -0.18700
C2486       C  0.37775835  0.09664536  0.78452494    -0.08700
C2487       C  0.43405096  0.07491036  0.76136316    -0.19000
C2488       C  0.43483916  0.04397841  0.76063155    -0.23800
C2489       C  0.45366629  0.02718666  0.75210409     0.26600
C2490       C  0.46158279  0.99722403  0.75523398    -0.20600
C2491       C  0.47893766  0.98061325  0.74736499    -0.10200
C2492       C  0.48838146  0.99336481  0.73601499    -0.10700
C2493       C  0.47991376  0.02307753  0.73271985    -0.03700
C2494       C  0.46280315  0.03983376  0.74066937    -0.18800
H2495       H  0.38489300  0.16352262  0.76816211     0.10300
H2496       H  0.42072798  0.13402927  0.75806532     0.10400
H2497       H  0.40164868  0.05629969  0.78175199     0.10000
H2498       H  0.36560331  0.08563799  0.79172918     0.11100
H2499       H  0.44822039  0.08826208  0.75573179     0.11200
H2500       H  0.42121119  0.03017083  0.76634232     0.13100
H2501       H  0.45457506  0.98675497  0.76388740     0.09700
H2502       H  0.48498752  0.95774538  0.75018599     0.11700
H2503       H  0.48683155  0.03359376  0.72406678     0.08400
H2504       H  0.45642922  0.06244227  0.73770607     0.11100
C2505       C  0.65601721  0.73325727  0.21387173    -0.03500
C2506       C  0.64113562  0.72309066  0.20343453    -0.06100
C2507       C  0.62781676  0.69474113  0.20369180    -0.21200
C2508       C  0.62956930  0.67563905  0.21426444     0.24500
C2509       C  0.64327223  0.68649787  0.22498103    -0.18700
C2510       C  0.65629560  0.71516371  0.22478496    -0.08700
C2511       C  0.61756232  0.64436911  0.21343339    -0.19000
C2512       C  0.62553470  0.62031187  0.22047061    -0.23800
C2513       C  0.61485176  0.58885362  0.21827775     0.26600
C2514       C  0.60838935  0.57860932  0.20614070    -0.20600
C2515       C  0.59680392  0.54966444  0.20431779    -0.10200
C2516       C  0.59145047  0.53019935  0.21457488    -0.10700
C2517       C  0.59945529  0.53972625  0.22663256    -0.03700
C2518       C  0.61123202  0.56874247  0.22844004    -0.18800
H2519       H  0.64043109  0.73671416  0.19493254     0.10300
H2520       H  0.61707779  0.68713050  0.19538054     0.10400
H2521       H  0.64432733  0.67288598  0.23345177     0.10000
H2522       H  0.66766205  0.72250452  0.23295390     0.11100
H2523       H  0.60255156  0.64061976  0.20612252     0.11200
H2524       H  0.64007494  0.62343230  0.22800206     0.13100
H2525       H  0.61208608  0.59301069  0.19802603     0.09700
H2526       H  0.59133684  0.54292501  0.19487222     0.11700
H2527       H  0.59577322  0.52523737  0.23472607     0.08400
H2528       H  0.61658025  0.57594456  0.23784573     0.11100
C2529       C  0.63237972  0.88393222  0.22452286    -0.03500
C2530       C  0.60866136  0.86931698  0.22891225    -0.06100
C2531       C  0.58778356  0.88649552  0.23446930    -0.21200
C2532       C  0.59070724  0.91834597  0.23617062     0.24500
C2533       C  0.61430440  0.93295304  0.23167232    -0.18700
C2534       C  0.63475953  0.91598024  0.22579924    -0.08700
C2535       C  0.56888516  0.93614082  0.24248827    -0.19000
C2536       C  0.57448024  0.95837793  0.25090426    -0.23800
C2537       C  0.55308650  0.97621137  0.25748871     0.26600
C2538       C  0.55650342  0.98354774  0.27021177    -0.20600
C2539       C  0.53693008  0.00082298  0.27660373    -0.10200
C2540       C  0.51398496  0.01208837  0.27028199    -0.10700
C2541       C  0.51088737  0.00534192  0.25745202    -0.03700
C2542       C  0.53008637  0.98727499  0.25114987    -0.18800
H2543       H  0.60632638  0.84465507  0.22807695     0.10300
H2544       H  0.56966006  0.87479125  0.23777531     0.10400
H2545       H  0.61688511  0.95755015  0.23265117     0.10000
H2546       H  0.65291931  0.92784142  0.22262602     0.11100
H2547       H  0.54787980  0.92964578  0.24074658     0.11200
H2548       H  0.59547189  0.96248568  0.25361000     0.13100
H2549       H  0.57418377  0.97548939  0.27525942     0.09700
H2550       H  0.53985350  0.00561569  0.28648263     0.11700
H2551       H  0.49330643  0.01349489  0.25236050     0.08400
H2552       H  0.52720809  0.98241951  0.24127596     0.11100
C2553       C  0.76447425  0.75496112  0.23066709    -0.03500
C2554       C  0.77525895  0.72878412  0.22479408    -0.06100
C2555       C  0.79225511  0.70871929  0.23135490    -0.21200
C2556       C  0.79891513  0.71404749  0.24398475     0.24500
C2557       C  0.78851000  0.74054359  0.24983734    -0.18700
C2558       C  0.77147362  0.76067136  0.24325518    -0.08700
C2559       C  0.81730021  0.69175280  0.25041636    -0.19000
C2560       C  0.82123453  0.69012518  0.26295434    -0.23800
C2561       C  0.84030855  0.66801096  0.26905233     0.26600
C2562       C  0.85035515  0.67468185  0.28109093    -0.20600
C2563       C  0.86962596  0.65562709  0.28681186    -0.10200
C2564       C  0.87903714  0.62909387  0.28069655    -0.10700
C2565       C  0.86783052  0.62150197  0.26895676    -0.03700
C2566       C  0.84872636  0.64063975  0.26320838    -0.18800
H2567       H  0.77032723  0.72352762  0.21513317     0.10300
H2568       H  0.80005236  0.68869528  0.22653816     0.10400
H2569       H  0.79356106  0.74614963  0.25942524     0.10000
H2570       H  0.76362115  0.78063899  0.24808078     0.11100
H2571       H  0.82813192  0.67596594  0.24436652     0.11200
H2572       H  0.81084951  0.70609274  0.26908275     0.13100
H2573       H  0.84396036  0.69530701  0.28592469     0.09700
H2574       H  0.87776021  0.66219496  0.29585859     0.11700
H2575       H  0.87456763  0.60127625  0.26394978     0.08400
H2576       H  0.84079638  0.63383650  0.25417496     0.11100
C2577       C  0.78361068  0.84787042  0.18340866    -0.03500
C2578       C  0.78742025  0.87660286  0.17763194    -0.06100
C2579       C  0.81344210  0.88642940  0.17412858    -0.21200
C2580       C  0.83621598  0.86784831  0.17633279     0.24500
C2581       C  0.83211951  0.83838431  0.18150867    -0.18700
C2582       C  0.80611891  0.82851532  0.18492581    -0.08700
C2583       C  0.86377460  0.88154239  0.17463689    -0.19000
C2584       C  0.88708025  0.86552707  0.17564474    -0.23800
C2585       C  0.91445319  0.87972704  0.17726563     0.26600
C2586       C  0.93716974  0.86029781  0.17771419    -0.20600
C2587       C  0.96285451  0.87178522  0.18087031    -0.10200
C2588       C  0.96641671  0.90307298  0.18364884    -0.10700
C2589       C  0.94390735  0.92273848  0.18276384    -0.03700
C2590       C  0.91824845  0.91126826  0.17966441    -0.18800
H2591       H  0.77046090  0.89199425  0.17623918     0.10300
H2592       H  0.81591008  0.90920894  0.17017244     0.10400
H2593       H  0.84883490  0.82328580  0.18362097     0.10000
H2594       H  0.80389917  0.80622391  0.18934187     0.11100
H2595       H  0.86456363  0.90617778  0.17326228     0.11200
H2596       H  0.88627364  0.84068086  0.17599801     0.13100
H2597       H  0.93488887  0.83588823  0.17602355     0.09700
H2598       H  0.97970529  0.85595368  0.18153799     0.11700
H2599       H  0.94586465  0.94696408  0.18490014     0.08400
H2600       H  0.90152746  0.92722883  0.17970359     0.11100
C2601       C  0.59139434  0.73326361  0.03956600    -0.03500
C2602       C  0.60651589  0.72246994  0.04978574    -0.06100
C2603       C  0.62018968  0.69454676  0.04904995    -0.21200
C2604       C  0.61858483  0.67637713  0.03820524     0.24500
C2605       C  0.60423384  0.68766717  0.02775649    -0.18700
C2606       C  0.59087978  0.71601197  0.02842713    -0.08700
C2607       C  0.63166417  0.64568230  0.03852524    -0.19000
C2608       C  0.62494387  0.62188943  0.03103895    -0.23800
C2609       C  0.63634102  0.59067413  0.03301662     0.26600
C2610       C  0.64294683  0.58005304  0.04509399    -0.20600
C2611       C  0.65451130  0.55114348  0.04677402    -0.10200
C2612       C  0.65962636  0.53194834  0.03644760    -0.10700
C2613       C  0.65181225  0.54194954  0.02442327    -0.03700
C2614       C  0.64012039  0.57097727  0.02274993    -0.18800
H2615       H  0.60734498  0.73540264  0.05845559     0.10300
H2616       H  0.63129941  0.68658201  0.05718857     0.10400
H2617       H  0.60306928  0.67473005  0.01912039     0.10000
H2618       H  0.57923850  0.72383115  0.02042891     0.11100
H2619       H  0.64656700  0.64204260  0.04587878     0.11200
H2620       H  0.61070157  0.62496568  0.02338994     0.13100
H2621       H  0.63916394  0.59399435  0.05330674     0.09700
H2622       H  0.65992122  0.54409652  0.05618740     0.11700
H2623       H  0.65539333  0.52772083  0.01626511     0.08400
H2624       H  0.63473265  0.57841224  0.01338099     0.11100
C2625       C  0.47716174  0.10150432  0.98243189    -0.03500
C2626       C  0.46954768  0.09952358  0.99512330    -0.06100
C2627       C  0.47476375  0.07284812  0.00205152    -0.21200
C2628       C  0.48748969  0.04749551  0.99645181     0.24500
C2629       C  0.49627447  0.04999186  0.98392871    -0.18700
C2630       C  0.49109730  0.07664487  0.97700664    -0.08700
C2631       C  0.49162146  0.01916886  0.00403446    -0.19000
C2632       C  0.49366412  0.99078877  0.99902252    -0.23800
C2633       C  0.49832337  0.96255611  0.00662318     0.26600
C2634       C  0.51035549  0.93700795  0.00085404    -0.20600
C2635       C  0.51702049  0.91091589  0.00786290    -0.10200
C2636       C  0.51166276  0.90972845  0.02082042    -0.10700
C2637       C  0.49807110  0.93453445  0.02643131    -0.03700
C2638       C  0.49135154  0.96058225  0.01941321    -0.18800
H2639       H  0.45867759  0.11812882  0.99958629     0.10300
H2640       H  0.46811362  0.07167791  0.01173321     0.10400
H2641       H  0.50713412  0.03148045  0.97942143     0.10000
H2642       H  0.49753561  0.07750379  0.96729064     0.11100
H2643       H  0.49249290  0.02203320  0.01412606     0.11200
H2644       H  0.49276177  0.98802705  0.98891910     0.13100
H2645       H  0.51554645  0.93767113  0.99097930     0.09700
H2646       H  0.52741755  0.89222551  0.00321596     0.11700
H2647       H  0.49327018  0.93420912  0.03634840     0.08400
H2648       H  0.48093814  0.97913348  0.02410609     0.11100
C2649       C  0.58527797  0.82658329  0.08705963    -0.03500
C2650       C  0.60971705  0.84328242  0.08807265    -0.06100
C2651       C  0.62484947  0.84271053  0.09919688    -0.21200
C2652       C  0.61555174  0.82617712  0.10968312     0.24500
C2653       C  0.59120609  0.80926286  0.10867105    -0.18700
C2654       C  0.57637278  0.80925759  0.09744203    -0.08700
C2655       C  0.63207649  0.82622169  0.12138636    -0.19000
C2656       C  0.62095063  0.82516250  0.13294770    -0.23800
C2657       C  0.63733522  0.82608495  0.14468268     0.26600
C2658       C  0.62646701  0.84025675  0.15538907    -0.20600
C2659       C  0.64114038  0.84116261  0.16663346    -0.10200
C2660       C  0.66672076  0.82710623  0.16752646    -0.10700
C2661       C  0.67742485  0.81240260  0.15687168    -0.03700
C2662       C  0.66300059  0.81210993  0.14553620    -0.18800
H2663       H  0.61724090  0.85664953  0.08021788     0.10300
H2664       H  0.64367853  0.85565705  0.09968519     0.10400
H2665       H  0.58381293  0.79567682  0.11648258     0.10000
H2666       H  0.55765397  0.79612286  0.09695592     0.11100
H2667       H  0.65392691  0.82916215  0.12045079     0.11200
H2668       H  0.59896171  0.82546537  0.13388777     0.13100
H2669       H  0.60664605  0.85094732  0.15501090     0.09700
H2670       H  0.63228915  0.85249792  0.17469452     0.11700
H2671       H  0.69710106  0.80139268  0.15726680     0.08400
H2672       H  0.67169849  0.80040237  0.13753659     0.11100
C2673       C  0.73122045  0.00723176  0.97748141    -0.03500
C2674       C  0.71819818  0.98193576  0.97186733    -0.06100
C2675       C  0.70184449  0.96208585  0.97897533    -0.21200
C2676       C  0.69796213  0.96682693  0.99189573     0.24500
C2677       C  0.71059963  0.99252644  0.99749453    -0.18700
C2678       C  0.72701564  0.01239028  0.99036949    -0.08700
C2679       C  0.68051612  0.94439778  0.99893753    -0.19000
C2680       C  0.67596256  0.94486791  0.01144152    -0.23800
C2681       C  0.65739955  0.92281988  0.01797730     0.26600
C2682       C  0.64504561  0.93185984  0.02925705    -0.20600
C2683       C  0.62599514  0.91284783  0.03523498    -0.10200
C2684       C  0.61898689  0.88408021  0.03013244    -0.10700
C2685       C  0.63260927  0.87421520  0.01924887    -0.03700
C2686       C  0.65161788  0.89329989  0.01324894    -0.18800
H2687       H  0.72104691  0.97705845  0.96199457     0.10300
H2688       H  0.69238949  0.94264572  0.97434141     0.10400
H2689       H  0.70815857  0.99756847  0.00734208     0.10000
H2690       H  0.73675205  0.03160124  0.99502580     0.11100
H2691       H  0.67047480  0.92685587  0.99336584     0.11200
H2692       H  0.68484939  0.96284196  0.01715460     0.13100
H2693       H  0.64939236  0.95425221  0.03322853     0.09700
H2694       H  0.61599307  0.92125058  0.04360193     0.11700
H2695       H  0.62786994  0.85215928  0.01507706     0.08400
H2696       H  0.66149780  0.88489959  0.00486837     0.11100
C2697       C  0.48101386  0.75925670  0.02477318    -0.03500
C2698       C  0.46581688  0.73641510  0.03098592    -0.06100
C2699       C  0.44840126  0.71691614  0.02425246    -0.21200
C2700       C  0.44579914  0.71959416  0.01115230     0.24500
C2701       C  0.46043573  0.74313174  0.00501907    -0.18700
C2702       C  0.47767724  0.76266530  0.01174803    -0.08700
C2703       C  0.42813507  0.69701903  0.00436259    -0.19000
C2704       C  0.42401154  0.69689844  0.99183174    -0.23800
C2705       C  0.40585333  0.67460417  0.98533256     0.26600
C2706       C  0.39370408  0.68344180  0.97399621    -0.20600
C2707       C  0.37515996  0.66408581  0.96795380    -0.10200
C2708       C  0.36853397  0.63519090  0.97304625    -0.10700
C2709       C  0.38203865  0.62550082  0.98397427    -0.03700
C2710       C  0.40050011  0.64499152  0.99006559    -0.18800
H2711       H  0.46779684  0.73315649  0.04101492     0.10300
H2712       H  0.43730687  0.69923077  0.02929238     0.10400
H2713       H  0.45926556  0.74657774  0.99501523     0.10000
H2714       H  0.48903800  0.77997359  0.00662458     0.11100
H2715       H  0.41776917  0.67990637  0.01005814     0.11200
H2716       H  0.43294922  0.71459977  0.98599200     0.13100
H2717       H  0.39781216  0.70591419  0.97002769     0.09700
H2718       H  0.36524837  0.67228959  0.95953678     0.11700
H2719       H  0.37753502  0.60333503  0.98812387     0.08400
H2720       H  0.41030027  0.63688212  0.99851104     0.11100
C2721       C  0.46649871  0.85006482  0.07171697    -0.03500
C2722       C  0.44640085  0.82725979  0.07320631    -0.06100
C2723       C  0.41990063  0.83510057  0.07654734    -0.21200
C2724       C  0.41273056  0.86588202  0.07839676     0.24500
C2725       C  0.43319594  0.88858791  0.07775776    -0.18700
C2726       C  0.45981511  0.88072750  0.07442016    -0.08700
C2727       C  0.38348684  0.87318484  0.08016004    -0.19000
C2728       C  0.37254961  0.90018434  0.07669807    -0.23800
C2729       C  0.34282552  0.90579603  0.07569644     0.26600
C2730       C  0.33396314  0.93622476  0.07450331    -0.20600
C2731       C  0.30691993  0.94266665  0.07161138    -0.10200
C2732       C  0.28803137  0.91874808  0.06977469    -0.10700
C2733       C  0.29651329  0.88829495  0.07158369    -0.03700
C2734       C  0.32364051  0.88182886  0.07445950    -0.18800
H2735       H  0.45084591  0.80335909  0.07133631     0.10300
H2736       H  0.40463915  0.81712316  0.07711459     0.10400
H2737       H  0.42872442  0.91245635  0.07960269     0.10000
H2738       H  0.47489750  0.89880373  0.07354009     0.11100
H2739       H  0.37033328  0.85461160  0.08325723     0.11200
H2740       H  0.38578540  0.91869194  0.07359530     0.13100
H2741       H  0.34825412  0.95511466  0.07537196     0.09700
H2742       H  0.30107329  0.96642273  0.07035713     0.11700
H2743       H  0.28251891  0.86934096  0.07016617     0.08400
H2744       H  0.32957518  0.85800264  0.07499826     0.11100
C2745       C  0.91162213  0.47709044  0.28858552    -0.03500
C2746       C  0.88911133  0.47457962  0.28055933    -0.06100
C2747       C  0.87453738  0.44682964  0.27983439    -0.21200
C2748       C  0.88294220  0.42108654  0.28676104     0.24500
C2749       C  0.90555001  0.42368778  0.29468232    -0.18700
C2750       C  0.91960098  0.45137765  0.29563393    -0.08700
C2751       C  0.86738509  0.39195397  0.28627202    -0.19000
C2752       C  0.87993588  0.36453731  0.28636610    -0.23800
C2753       C  0.86502046  0.33518296  0.28774008     0.26600
C2754       C  0.87380568  0.30905115  0.28120648    -0.20600
C2755       C  0.86046866  0.28080977  0.28281405    -0.10200
C2756       C  0.83884994  0.27811628  0.29136581    -0.10700
C2757       C  0.83055347  0.30420312  0.29810511    -0.03700
C2758       C  0.84332540  0.33250571  0.29622758    -0.18800
H2759       H  0.88252040  0.49413747  0.27508358     0.10300
H2760       H  0.85691286  0.44532830  0.27378816     0.10400
H2761       H  0.91205741  0.40444291  0.30036445     0.10000
H2762       H  0.93695389  0.45259802  0.30186098     0.11100
H2763       H  0.84533985  0.39304065  0.28593484     0.11200
H2764       H  0.90191775  0.36355498  0.28545545     0.13100
H2765       H  0.89076336  0.31062883  0.27474410     0.09700
H2766       H  0.86715208  0.26108002  0.27747154     0.11700
H2767       H  0.81372546  0.30287931  0.30464984     0.08400
H2768       H  0.83659293  0.35215666  0.30160672     0.11100
C2769       C  0.74004064  0.90822579  0.23287221    -0.03500
C2770       C  0.76085633  0.92647576  0.22765843    -0.06100
C2771       C  0.76800815  0.95455519  0.23312485    -0.21200
C2772       C  0.75410104  0.96526900  0.24373243     0.24500
C2773       C  0.73465677  0.94600461  0.24948126    -0.18700
C2774       C  0.72775373  0.91770837  0.24411028    -0.08700
C2775       C  0.75997613  0.99674982  0.24841650    -0.19000
C2776       C  0.74108280  0.01407716  0.25417677    -0.23800
C2777       C  0.74691647  0.04492356  0.25945195     0.26600
C2778       C  0.73308409  0.05390716  0.27034092    -0.20600
C2779       C  0.73983499  0.08131264  0.27639569    -0.10200
C2780       C  0.76016235  0.10070466  0.27150697    -0.10700
C2781       C  0.77255843  0.09289601  0.26005545    -0.03700
C2782       C  0.76611469  0.06512634  0.25410211    -0.18800
H2783       H  0.77085434  0.91961257  0.21905124     0.10300
H2784       H  0.78347750  0.96864872  0.22868495     0.10400
H2785       H  0.72436175  0.95295003  0.25798782     0.10000
H2786       H  0.71169122  0.90412179  0.24835373     0.11100
H2787       H  0.78016473  0.00610405  0.24675541     0.11200
H2788       H  0.72087228  0.00473083  0.25576300     0.13100
H2789       H  0.71791443  0.03894151  0.27452134     0.09700
H2790       H  0.72982107  0.08679500  0.28516347     0.11700
H2791       H  0.78830241  0.10739281  0.25606486     0.08400
H2792       H  0.77647619  0.05930437  0.24546848     0.11100
C2793       C  0.73328717  0.25188519  0.27418578    -0.03500
C2794       C  0.73066425  0.24971703  0.26107620    -0.06100
C2795       C  0.71325445  0.26940517  0.25449446    -0.21200
C2796       C  0.69800418  0.29189166  0.26087779     0.24500
C2797       C  0.70026205  0.29351720  0.27400229    -0.18700
C2798       C  0.71766669  0.27390948  0.28056139    -0.08700
C2799       C  0.67937775  0.31395065  0.25442973    -0.19000
C2800       C  0.67772675  0.31786315  0.24187022    -0.23800
C2801       C  0.65865143  0.33975548  0.23569374     0.26600
C2802       C  0.65073748  0.33424705  0.22322816    -0.20600
C2803       C  0.63193265  0.35334999  0.21723312    -0.10200
C2804       C  0.62096306  0.37884120  0.22349348    -0.10700
C2805       C  0.62993046  0.38526919  0.23575946    -0.03700
C2806       C  0.64847911  0.36596541  0.24180242    -0.18800
H2807       H  0.74236830  0.23304393  0.25584839     0.10300
H2808       H  0.71195538  0.26665068  0.24445044     0.10400
H2809       H  0.68871880  0.31034778  0.27923223     0.10000
H2810       H  0.71908042  0.27628847  0.29065123     0.11100
H2811       H  0.66630811  0.32753739  0.26044277     0.11200
H2812       H  0.69006566  0.30397059  0.23568639     0.13100
H2813       H  0.65851496  0.31450148  0.21822369     0.09700
H2814       H  0.62547014  0.34770768  0.20780104     0.11700
H2815       H  0.62182452  0.40462417  0.24090172     0.08400
H2816       H  0.65471523  0.37173033  0.25123867     0.11100
C2817       C  0.52628338  0.10380136  0.31757365    -0.03500
C2818       C  0.52950008  0.13379677  0.32222345    -0.06100
C2819       C  0.55543753  0.14542818  0.32486559    -0.21200
C2820       C  0.57865649  0.12733330  0.32299327     0.24500
C2821       C  0.57528514  0.09687049  0.31884371    -0.18700
C2822       C  0.54942228  0.08523305  0.31626014    -0.08700
C2823       C  0.60597350  0.14187363  0.32415576    -0.19000
C2824       C  0.62912324  0.12571387  0.32544838    -0.23800
C2825       C  0.65699556  0.13905887  0.32447730     0.26600
C2826       C  0.67920771  0.11994584  0.32709255    -0.20600
C2827       C  0.70581763  0.12991020  0.32484706    -0.10200
C2828       C  0.71088431  0.15935011  0.31994098    -0.10700
C2829       C  0.68877761  0.17903263  0.31783961    -0.03700
C2830       C  0.66213940  0.16900189  0.32000399    -0.18800
H2831       H  0.51210851  0.14869755  0.32336212     0.10300
H2832       H  0.55744025  0.16898879  0.32800380     0.10400
H2833       H  0.59252183  0.08230966  0.31691145     0.10000
H2834       H  0.54774938  0.06206947  0.31263448     0.11100
H2835       H  0.60674013  0.16671270  0.32365375     0.11200
H2836       H  0.62782333  0.10112147  0.32698800     0.13100
H2837       H  0.67593998  0.09677327  0.33050672     0.09700
H2838       H  0.72236354  0.11414702  0.32657660     0.11700
H2839       H  0.69194136  0.20178061  0.31396709     0.08400
H2840       H  0.64585923  0.18449155  0.31762661     0.11100
C2841       C  0.86521297  0.12185344  0.28226715    -0.03500
C2842       C  0.87080211  0.09291612  0.28756349    -0.06100
C2843       C  0.88849239  0.07251706  0.28156648    -0.21200
C2844       C  0.90060558  0.08037108  0.27006881     0.24500
C2845       C  0.89621833  0.10991842  0.26513841    -0.18700
C2846       C  0.87874509  0.13039214  0.27117053    -0.08700
C2847       C  0.91790513  0.05752778  0.26348563    -0.19000
C2848       C  0.92026172  0.05669697  0.25086713    -0.23800
C2849       C  0.93829600  0.03539026  0.24379187     0.26600
C2850       C  0.94385189  0.04192995  0.23112817    -0.20600
C2851       C  0.96178074  0.02371543  0.22419679    -0.10200
C2852       C  0.97453646  0.99832389  0.22976582    -0.10700
C2853       C  0.96816289  0.99104497  0.24230248    -0.03700
C2854       C  0.95023127  0.00925267  0.24923196    -0.18800
H2855       H  0.86074975  0.08556647  0.29610535     0.10300
H2856       H  0.89191812  0.05009728  0.28567758     0.10400
H2857       H  0.90609359  0.11726430  0.25656521     0.10000
H2858       H  0.87496494  0.15245559  0.26682553     0.11100
H2859       H  0.92840484  0.04090980  0.26926986     0.11200
H2860       H  0.90884381  0.07311546  0.24532574     0.13100
H2861       H  0.93479606  0.06173974  0.22664103     0.09700
H2862       H  0.96621817  0.03006017  0.21458397     0.11700
H2863       H  0.97745628  0.97151822  0.24687984     0.08400
H2864       H  0.94600892  0.00267094  0.25881088     0.11100
C2865       C  0.83536852  0.47876519  0.46122116    -0.03500
C2866       C  0.84215416  0.46328285  0.45010077    -0.06100
C2867       C  0.85537619  0.43503677  0.45052757    -0.21200
C2868       C  0.86179663  0.42132134  0.46205333     0.24500
C2869       C  0.85604709  0.43732947  0.47321025    -0.18700
C2870       C  0.84301399  0.46585654  0.47277945    -0.08700
C2871       C  0.87411198  0.39024725  0.46185379    -0.19000
C2872       C  0.87280453  0.37000767  0.47142259    -0.23800
C2873       C  0.88315811  0.33810741  0.47025130     0.26600
C2874       C  0.88310044  0.32266091  0.45866871    -0.20600
C2875       C  0.89411069  0.29332147  0.45762794    -0.10200
C2876       C  0.90509901  0.27845953  0.46815032    -0.10700
C2877       C  0.90381385  0.29312007  0.47988145    -0.03700
C2878       C  0.89285542  0.32269006  0.48091377    -0.18800
H2879       H  0.83678875  0.47273056  0.44103831     0.10300
H2880       H  0.85986155  0.42339072  0.44179121     0.10400
H2881       H  0.86144007  0.42796881  0.48226290     0.10000
H2882       H  0.83815186  0.47731879  0.48150727     0.11100
H2883       H  0.88355577  0.38327065  0.45310369     0.11200
H2884       H  0.86398404  0.37667924  0.48033694     0.13100
H2885       H  0.87461226  0.33313944  0.45035349     0.09700
H2886       H  0.89445385  0.28243926  0.44849403     0.11700
H2887       H  0.91226568  0.28228742  0.48814189     0.08400
H2888       H  0.89272186  0.33392245  0.48997707     0.11100
C2889       C  0.01233774  0.90147951  0.51975913    -0.03500
C2890       C  0.01962714  0.90388639  0.50703522    -0.06100
C2891       C  0.01317449  0.93024667  0.50017624    -0.21200
C2892       C  0.99948694  0.95471233  0.50591206     0.24500
C2893       C  0.99056061  0.95138757  0.51838217    -0.18700
C2894       C  0.99703637  0.92512255  0.52524046    -0.08700
C2895       C  0.99499751  0.98338855  0.49868978    -0.19000
C2896       C  0.99276189  0.01109671  0.50422395    -0.23800
C2897       C  0.98778019  0.03998926  0.49723693     0.26600
C2898       C  0.97487766  0.06428242  0.50347086    -0.20600
C2899       C  0.96860941  0.09141330  0.49710796    -0.10200
C2900       C  0.97536572  0.09489572  0.48437500    -0.10700
C2901       C  0.98944303  0.07108080  0.47829478    -0.03700
C2902       C  0.99564641  0.04394160  0.48465406    -0.18800
H2903       H  0.03135932  0.88603517  0.50251956     0.10300
H2904       H  0.01982686  0.93203638  0.49051020     0.10400
H2905       H  0.97878895  0.96909772  0.52294015     0.10000
H2906       H  0.99070329  0.92375551  0.53496122     0.11100
H2907       H  0.99418907  0.98151874  0.48855079     0.11200
H2908       H  0.99381811  0.01282776  0.51436293     0.13100
H2909       H  0.96890756  0.06191130  0.51321129     0.09700
H2910       H  0.95772754  0.10924841  0.50206743     0.11700
H2911       H  0.99520779  0.07312413  0.46851941     0.08400
H2912       H  0.00656808  0.02622041  0.47966976     0.11100
C2913       C  0.91248314  0.18960430  0.41887353    -0.03500
C2914       C  0.91455574  0.21717424  0.41201667    -0.06100
C2915       C  0.90140793  0.22044565  0.40044617    -0.21200
C2916       C  0.88623280  0.19613893  0.39532450     0.24500
C2917       C  0.88364231  0.16876356  0.40228037    -0.18700
C2918       C  0.89658715  0.16556913  0.41391114    -0.08700
C2919       C  0.87295267  0.20029096  0.38286482    -0.19000
C2920       C  0.86852940  0.17682139  0.37485258    -0.23800
C2921       C  0.85561405  0.17995934  0.36224609     0.26600
C2922       C  0.85914157  0.15615612  0.35352751    -0.20600
C2923       C  0.84612635  0.15685914  0.34187541    -0.10200
C2924       C  0.82895894  0.18135952  0.33861762    -0.10700
C2925       C  0.82577795  0.20556033  0.34724203    -0.03700
C2926       C  0.83889449  0.20487741  0.35893063    -0.18800
H2927       H  0.92643080  0.23627339  0.41556799     0.10300
H2928       H  0.90348788  0.24189867  0.39536899     0.10400
H2929       H  0.87138673  0.14987554  0.39883836     0.10000
H2930       H  0.89430990  0.14412303  0.41896621     0.11100
H2931       H  0.86825690  0.22357623  0.37998548     0.11200
H2932       H  0.87565269  0.15410006  0.37742765     0.13100
H2933       H  0.87183849  0.13665834  0.35579530     0.09700
H2934       H  0.84918454  0.13783137  0.33550041     0.11700
H2935       H  0.81266231  0.22475184  0.34507968     0.08400
H2936       H  0.83515144  0.22341700  0.36543892     0.11100
C2937       C  0.01049584  0.24421970  0.48495425    -0.03500
C2938       C  0.02245750  0.23064775  0.49555214    -0.06100
C2939       C  0.04063243  0.24732718  0.50301498    -0.21200
C2940       C  0.04675508  0.27810588  0.50024177     0.24500
C2941       C  0.03514784  0.29158520  0.48951780    -0.18700
C2942       C  0.01728525  0.27475586  0.48194066    -0.08700
C2943       C  0.06598421  0.29503867  0.50849249    -0.19000
C2944       C  0.06516223  0.32572074  0.51016888    -0.23800
C2945       C  0.08503516  0.34309387  0.51797989     0.26600
C2946       C  0.08861514  0.37458839  0.51565217    -0.20600
C2947       C  0.10873288  0.39131793  0.52192382    -0.10200
C2948       C  0.12565117  0.37696120  0.53076467    -0.10700
C2949       C  0.12081861  0.34594048  0.53374351    -0.03700
C2950       C  0.10071022  0.32917831  0.52744014    -0.18800
H2951       H  0.01772507  0.20713113  0.49808982     0.10300
H2952       H  0.04958028  0.23630713  0.51112761     0.10400
H2953       H  0.04005688  0.31494171  0.48685112     0.10000
H2954       H  0.00836262  0.28587173  0.47384803     0.11100
H2955       H  0.08099916  0.28143681  0.51340560     0.11200
H2956       H  0.04989327  0.33900396  0.50524900     0.13100
H2957       H  0.07653949  0.38604020  0.50858018     0.09700
H2958       H  0.11174958  0.41523399  0.51944903     0.11700
H2959       H  0.13333749  0.33421586  0.54056481     0.08400
H2960       H  0.09786854  0.30529762  0.52992881     0.11100
C2961       C  0.20803735  0.08918979  0.43458297    -0.03500
C2962       C  0.18821055  0.06588085  0.43393473    -0.06100
C2963       C  0.16086309  0.07311863  0.43218997    -0.21200
C2964       C  0.15255274  0.10376984  0.43101451     0.24500
C2965       C  0.17257027  0.12708912  0.43109682    -0.18700
C2966       C  0.20001073  0.11980980  0.43280938    -0.08700
C2967       C  0.12281338  0.11020643  0.43096296    -0.19000
C2968       C  0.11185760  0.13774664  0.42829646    -0.23800
C2969       C  0.08271005  0.14498267  0.43048323     0.26600
C2970       C  0.07580490  0.17543748  0.43321997    -0.20600
C2971       C  0.04919848  0.18313699  0.43644841    -0.10200
C2972       C  0.02863592  0.16057378  0.43690448    -0.10700
C2973       C  0.03521291  0.13026667  0.43353638    -0.03700
C2974       C  0.06198739  0.12252035  0.43034318    -0.18800
H2975       H  0.19366482  0.04201403  0.43522683     0.10300
H2976       H  0.14599888  0.05467475  0.43217248     0.10400
H2977       H  0.16728210  0.15108270  0.43046165     0.10000
H2978       H  0.21474672  0.13831912  0.43335752     0.11100
H2979       H  0.10955496  0.09163203  0.43399060     0.11200
H2980       H  0.12484555  0.15662200  0.42538889     0.13100
H2981       H  0.09127916  0.19323137  0.43329864     0.09700
H2982       H  0.04492816  0.20676487  0.43889602     0.11700
H2983       H  0.01984499  0.11238223  0.43367790     0.08400
H2984       H  0.06633905  0.09896108  0.42786646     0.11100
C2985       C  0.75669962  0.99433303  0.52163032    -0.03500
C2986       C  0.76944355  0.98031038  0.51132402    -0.06100
C2987       C  0.78655551  0.99728756  0.50339778    -0.21200
C2988       C  0.79087593  0.02882883  0.50537836     0.24500
C2989       C  0.77821864  0.04286711  0.51575208    -0.18700
C2990       C  0.76142131  0.02574380  0.52380629    -0.08700
C2991       C  0.80978922  0.04572727  0.49681767    -0.19000
C2992       C  0.80919551  0.07642276  0.49497491    -0.23800
C2993       C  0.82941657  0.09373320  0.48718010     0.26600
C2994       C  0.83239459  0.12544590  0.48919536    -0.20600
C2995       C  0.85265169  0.14230007  0.48299076    -0.10200
C2996       C  0.87036347  0.12794432  0.47446316    -0.10700
C2997       C  0.86631766  0.09658073  0.47183845    -0.03700
C2998       C  0.84608975  0.07965690  0.47810120    -0.18800
H2999       H  0.76619941  0.95614714  0.50939531     0.10300
H3000       H  0.79625065  0.98577409  0.49558658     0.10400
H3001       H  0.78157686  0.06688283  0.51784453     0.10000
H3002       H  0.75169123  0.03723440  0.53161055     0.11100
H3003       H  0.82480039  0.03201336  0.49195001     0.11200
H3004       H  0.79392874  0.08989378  0.49981169     0.13100
H3005       H  0.81966875  0.13706536  0.49598355     0.09700
H3006       H  0.85507218  0.16640809  0.48524530     0.11700
H3007       H  0.87955350  0.08473952  0.46533607     0.08400
H3008       H  0.84394960  0.05555516  0.47587869     0.11100
loop_ 
_geom_bond_atom_site_label_1 
_geom_bond_atom_site_label_2 
_geom_bond_distance 
_geom_bond_site_symmetry_2 
_ccdc_geom_bond_type 
Fe1          O17   2.084       .  S
Fe1           O7   2.043       .  S
Fe1          O14   2.046       .  S
Fe1           O6   2.088       .  S
Fe1          O12   1.953       .  S
Fe2           O5   2.100       .  S
Fe2           O9   2.067       .  S
Fe2          O13   2.097       .  S
Fe2          O18   2.047       .  S
Fe2          O12   1.958       .  S
Fe3          O21   2.058       .  S
Fe3           O8   2.087       .  S
Fe3          O15   2.098       .  S
Fe3           O4   2.058       .  S
Fe3          O12   1.957       .  S
O4           C11   1.268       .  A
O5           C19   1.277       .  A
O6           C11   1.273       .  A
O7           C10   1.267       .  A
O8           C20   1.274       .  A
O9           C22   1.270       .  A
C10          O15   1.275       .  A
C10        C2876   1.480       .  S
C11        C2937   1.482   1_655  S
O13          C16   1.276   1_655  A
O14          C16   1.268   1_655  A
C16        C2972   1.487       .  S
O17          C22   1.273       .  A
O18          C20   1.267       .  A
C19          O21   1.271       .  A
C19        C2996   1.490       .  S
C20        C2900   1.481       .  S
C22        C2913   1.490       .  S
Fe23         O39   2.098       .  S
Fe23         O29   2.048       .  S
Fe23         O36   2.054       .  S
Fe23         O28   2.078       .  S
Fe23         O34   1.959       .  S
Fe24         O27   2.073       .  S
Fe24         O31   2.059       .  S
Fe24         O35   2.076       .  S
Fe24         O40   2.051       .  S
Fe24         O34   1.960       .  S
Fe25         O43   2.064       .  S
Fe25         O30   2.091       .  S
Fe25         O37   2.087       .  S
Fe25         O26   2.071       .  S
Fe25         O34   1.964       .  S
O26          C33   1.272       .  A
O27          C41   1.270       .  A
O28          C33   1.272       .  A
O29          C32   1.269       .  A
O30          C42   1.275       .  A
O31          C44   1.270       .  A
C32          O37   1.274       .  A
C32        C2756   1.477       .  S
C33        C2793   1.490       .  S
O35          C38   1.269       .  A
O36          C38   1.266       .  A
C38        C2828   1.482       .  S
O39          C44   1.276       .  A
O40          C42   1.269       .  A
C41          O43   1.270       .  A
C41        C2841   1.485       .  S
C42        C2780   1.480       .  S
C44        C2924   1.492       .  S
Fe45         O61   2.047       .  S
Fe45         O51   2.089       .  S
Fe45         O58   2.089       .  S
Fe45         O50   2.051       .  S
Fe45         O56   1.966       .  S
Fe46         O49   2.061       .  S
Fe46         O53   2.086       .  S
Fe46         O57   2.068       .  S
Fe46         O62   2.079       .  S
Fe46         O56   1.965       .  S
Fe47         O65   2.080       .  S
Fe47         O52   2.065       .  S
Fe47         O59   2.057       .  S
Fe47         O48   2.087       .  S
Fe47         O56   1.967       .  S
O48          C55   1.273       .  A
O49          C63   1.270       .  A
O50          C55   1.269       .  A
O51          C54   1.273       .  A
O52          C64   1.271       .  A
O53          C66   1.273       .  A
C54          O59   1.269       .  A
C54        C2697   1.489       .  S
C55        C2601   1.476       .  S
O57          C60   1.270       .  A
O58          C60   1.273       .  A
C60        C2649   1.488       .  S
O61          C66   1.268       .  A
O62          C64   1.273       .  A
C63          O65   1.273       .  A
C63        C2636   1.485       .  S
C64        C2684   1.489       .  S
C66        C2721   1.484       .  S
Fe67         O83   2.049       .  S
Fe67         O73   2.089       .  S
Fe67         O80   2.095       .  S
Fe67         O72   2.046       .  S
Fe67         O78   1.945       .  S
Fe68         O71   2.049       .  S
Fe68         O75   2.087       .  S
Fe68         O79   2.062       .  S
Fe68         O84   2.085       .  S
Fe68         O78   1.944       .  S
Fe69         O87   2.102       .  S
Fe69         O74   2.068       .  S
Fe69         O81   2.067       .  S
Fe69         O70   2.096       .  S
Fe69         O78   1.951       .  S
O70          C77   1.277       .  A
O71          C85   1.269       .  A
O72          C77   1.269       .  A
O73          C76   1.274       .  A
O74          C86   1.270       .  A
O75          C88   1.273       .  A
C76          O81   1.270       .  A
C76        C2553   1.491       .  S
C77        C2505   1.475       .  S
O79          C82   1.270       .  A
O80          C82   1.274       .  A
C82        C2660   1.485       .  S
O83          C88   1.268       .  A
O84          C86   1.273       .  A
C85          O87   1.278       .  A
C85        C2769   1.480       .  S
C86        C2529   1.483       .  S
C88        C2577   1.480       .  S
Fe89        O105   2.095       .  S
Fe89         O95   2.043       .  S
Fe89        O102   2.048       .  S
Fe89         O94   2.087       .  S
Fe89        O100   1.958       .  S
Fe90         O93   2.085       .  S
Fe90         O97   2.062       .  S
Fe90        O101   2.085       .  S
Fe90        O106   2.047       .  S
Fe90        O100   1.959       .  S
Fe91        O109   2.059       .  S
Fe91         O96   2.088       .  S
Fe91        O103   2.085       .  S
Fe91         O92   2.067       .  S
Fe91        O100   1.956       .  S
O92          C99   1.270       .  A
O93         C107   1.271       .  A
O94          C99   1.273       .  A
O95          C98   1.269       .  A
O96         C108   1.275       .  A
O97         C110   1.271       .  A
C98         O103   1.274       .  A
C98        C2372   1.471       .  S
C99        C2444   1.491       .  S
O101        C104   1.271       .  A
O102        C104   1.266       .  A
C104       C2468   1.482       .  S
O105        C110   1.276       .  A
O106        C108   1.269       .  A
C107        O109   1.268       .  A
C107       C2481   1.489       .  S
C108       C2396   1.471       .  S
C110       C2409   1.488       .  S
Fe111       O127   2.078       .  S
Fe111       O117   2.048       .  S
Fe111       O124   2.045       .  S
Fe111       O116   2.072       .  S
Fe111       O122   1.956       .  S
Fe112       O115   2.069       .  S
Fe112       O119   2.070       .  S
Fe112       O123   2.082       .  S
Fe112       O128   2.055       .  S
Fe112       O122   1.955       .  S
Fe113       O131   2.068       .  S
Fe113       O118   2.093       .  S
Fe113       O125   2.099       .  S
Fe113       O114   2.072       .  S
Fe113       O122   1.960       .  S
O114        C121   1.269       .  A
O115        C129   1.271       .  A
O116        C121   1.269       .  A
O117        C120   1.271       .  A
O118        C130   1.276       .  A
O119        C132   1.268       .  A
C120        O125   1.278       .  A
C120       C2265   1.479       .  S
C121       C2289   1.488       .  S
O123        C126   1.274       .  A
O124        C126   1.269       .  A
C126       C2324   1.477       .  S
O127        C132   1.269       .  A
O128        C130   1.269       .  A
C129        O131   1.272       .  A
C129       C2337   1.486       .  S
C130       C2625   1.486       .  S
C132       C2420   1.482       .  S
Fe133       O149   2.041       .  S
Fe133       O139   2.083       .  S
Fe133       O146   2.097       .  S
Fe133       O138   2.039       .  S
Fe133       O144   1.960       .  S
Fe134       O137   2.047       .  S
Fe134       O141   2.092       .  S
Fe134       O145   2.056       .  S
Fe134       O150   2.092       .  S
Fe134       O144   1.961       .  S
Fe135       O153   2.089       .  S
Fe135       O140   2.061       .  S
Fe135       O147   2.060       .  S
Fe135       O136   2.083       .  S
Fe135       O144   1.965       .  S
O136        C143   1.273       .  A
O137        C151   1.268       .  A
O138        C143   1.267       .  A
O139        C142   1.273       .  A
O140        C152   1.269       .  A
O141        C154   1.272       .  A
C142        O147   1.270       .  A
C142       C2228   1.477       .  S
C143       C2145   1.477       .  S
O145        C148   1.270       .  A
O146        C148   1.276       .  A
C148       C2169   1.483       .  S
O149        C154   1.263       .  A
O150        C152   1.273       .  A
C151        O153   1.275       .  A
C151       C2385   1.473       .  S
C152       C2204   1.492       .  S
C154       C2241   1.485       .  S
Fe155       O171   2.055   1_455  S
Fe155       O161   2.071       .  S
Fe155       O168   2.095       .  S
Fe155       O160   2.055       .  S
Fe155       O166   1.969       .  S
Fe156       O159   2.052       .  S
Fe156       O163   2.077       .  S
Fe156       O167   2.058       .  S
Fe156       O172   2.072       .  S
Fe156       O166   1.963       .  S
Fe157       O175   2.078       .  S
Fe157       O162   2.065       .  S
Fe157       O169   2.063       .  S
Fe157       O158   2.070       .  S
Fe157       O166   1.966       .  S
O158        C165   1.271       .  A
O159        C173   1.270       .  A
O160        C165   1.271       .  A
O161        C164   1.270       .  A
O162        C174   1.269       .  A
O163        C176   1.270   1_455  A
C164        O169   1.269       .  A
C164       C2097   1.481   1_455  S
C165       C2049   1.471       .  S
O167        C170   1.269       .  A
O168        C170   1.275       .  A
C170       C2180   1.483       .  S
O171        C176   1.266       .  A
O172        C174   1.269       .  A
C173        O175   1.273       .  A
C173       C2889   1.479       .  S
C174       C2084   1.488       .  S
C176       C2132   1.486       .  S
Fe177       O193   2.045       .  S
Fe177       O183   2.102       .  S
Fe177       O190   2.100       .  S
Fe177       O182   2.043       .  S
Fe177       O188   1.948       .  S
Fe178       O181   2.047       .  S
Fe178       O185   2.092       .  S
Fe178       O189   2.060       .  S
Fe178       O194   2.102       .  S
Fe178       O188   1.949       .  S
Fe179       O197   2.090       .  S
Fe179       O184   2.047       .  S
Fe179       O191   2.052       .  S
Fe179       O180   2.088       .  S
Fe179       O188   1.953       .  S
O180        C187   1.273   1_565  A
O181        C195   1.266       .  A
O182        C187   1.267   1_565  A
O183        C186   1.277       .  A
O184        C196   1.269       .  A
O185        C198   1.275       .  A
C186        O191   1.269       .  A
C186       C2348   1.488   1_565  S
C187       C1953   1.474       .  S
O189        C192   1.270       .  A
O190        C192   1.276       .  A
C192       C2001   1.493       .  S
O193        C198   1.268       .  A
O194        C196   1.278       .  A
C195        O197   1.273       .  A
C195       C1988   1.478       .  S
C196       C2036   1.487       .  S
C198       C2732   1.482       .  S
Fe199       O215   2.044   1_455  S
Fe199       O205   2.085       .  S
Fe199       O212   2.093       .  S
Fe199       O204   2.042       .  S
Fe199       O210   1.965       .  S
Fe200       O203   2.047       .  S
Fe200       O207   2.087       .  S
Fe200       O211   2.069       .  S
Fe200       O216   2.090       .  S
Fe200       O210   1.966       .  S
Fe201       O219   2.088       .  S
Fe201       O206   2.048       .  S
Fe201       O213   2.053       .  S
Fe201       O202   2.089       .  S
Fe201       O210   1.966       .  S
O202        C209   1.276   1_565  A
O203        C217   1.267       .  A
O204        C209   1.270   1_565  A
O205        C208   1.271   1_455  A
O206        C218   1.267       .  A
O207        C220   1.274   1_455  A
C208        O213   1.265   1_655  A
C208       C2852   1.487       .  S
C209       C1881   1.472       .  S
O211        C214   1.270       .  A
O212        C214   1.274       .  A
C214       C2012   1.496       .  S
O215        C220   1.267       .  A
O216        C218   1.275       .  A
C217        O219   1.274       .  A
C217       C1916   1.479       .  S
C218       C1929   1.488       .  S
C220       C2588   1.482       .  S
Fe221       O237   2.097       .  S
Fe221       O227   2.034       .  S
Fe221       O234   2.038   1_655  S
Fe221       O226   2.085       .  S
Fe221       O232   1.952       .  S
Fe222       O225   2.086       .  S
Fe222       O229   2.059       .  S
Fe222       O233   2.088       .  S
Fe222       O238   2.043       .  S
Fe222       O232   1.955       .  S
Fe223       O241   2.061       .  S
Fe223       O228   2.098       .  S
Fe223       O235   2.102       .  S
Fe223       O224   2.076       .  S
Fe223       O232   1.958       .  S
O224        C231   1.270       .  A
O225        C239   1.272       .  A
O226        C231   1.273       .  A
O227        C230   1.269       .  A
O228        C240   1.278       .  A
O229        C242   1.269       .  A
C230        O235   1.278       .  A
C230       C2745   1.476       .  S
C231       C1833   1.495   1_655  S
O233        C236   1.273   1_655  A
O234        C236   1.266       .  A
C236       C1857   1.476       .  S
O237        C242   1.275       .  A
O238        C240   1.268       .  A
C239        O241   1.269       .  A
C239       C2564   1.489       .  S
C240       C1905   1.476       .  S
C242       C1820   1.487       .  S
Fe243       O259   2.091       .  S
Fe243       O249   2.052       .  S
Fe243       O256   2.047       .  S
Fe243       O248   2.091       .  S
Fe243       O254   1.961       .  S
Fe244       O247   2.078       .  S
Fe244       O251   2.066       .  S
Fe244       O255   2.084       .  S
Fe244       O260   2.052       .  S
Fe244       O254   1.966       .  S
Fe245       O263   2.055       .  S
Fe245       O250   2.082       .  S
Fe245       O257   2.084       .  S
Fe245       O246   2.057       .  S
Fe245       O254   1.966       .  S
O246        C253   1.267       .  A
O247        C261   1.271       .  A
O248        C253   1.273       .  A
O249        C252   1.270       .  A
O250        C262   1.274       .  A
O251        C264   1.270       .  A
C252        O257   1.274       .  A
C252       C2865   1.480       .  S
C253       C1772   1.487       .  S
O255        C258   1.272       .  A
O256        C258   1.267       .  A
C258       C1796   1.482       .  S
O259        C264   1.274       .  A
O260        C262   1.270       .  A
C261        O263   1.268       .  A
C261       C2108   1.484       .  S
C262       C1737   1.481       .  S
C264       C1809   1.490       .  S
Fe265       O281   2.040       .  S
Fe265       O271   2.100       .  S
Fe265       O278   2.101       .  S
Fe265       O270   2.034       .  S
Fe265       O276   1.946       .  S
Fe266       O269   2.040       .  S
Fe266       O273   2.096       .  S
Fe266       O277   2.056       .  S
Fe266       O282   2.098       .  S
Fe266       O276   1.948       .  S
Fe267       O285   2.093       .  S
Fe267       O272   2.049       .  S
Fe267       O279   2.052       .  S
Fe267       O268   2.090       .  S
Fe267       O276   1.950       .  S
O268        C275   1.274       .  A
O269        C283   1.267       .  A
O270        C275   1.267       .  A
O271        C274   1.276       .  A
O272        C284   1.266       .  A
O273        C286   1.274       .  A
C274        O279   1.267       .  A
C274       C2492   1.487       .  S
C275       C1641   1.473   1_565  S
O277        C280   1.270       .  A
O278        C280   1.277       .  A
C280       C1700   1.487       .  S
O281        C286   1.266       .  A
O282        C284   1.275       .  A
C283        O285   1.276       .  A
C283       C1665   1.476       .  S
C284       C1724   1.486       .  S
C286       C2252   1.483       .  S
Fe287       O303   2.052       .  S
Fe287       O293   2.097       .  S
Fe287       O300   2.102       .  S
Fe287       O292   2.043       .  S
Fe287       O298   1.948       .  S
Fe288       O291   2.045       .  S
Fe288       O295   2.087       .  S
Fe288       O299   2.054       .  S
Fe288       O304   2.080       .  S
Fe288       O298   1.947       .  S
Fe289       O307   2.090       .  S
Fe289       O294   2.059       .  S
Fe289       O301   2.054       .  S
Fe289       O290   2.103       .  S
Fe289       O298   1.946       .  S
O290        C297   1.278       .  A
O291        C305   1.269       .  A
O292        C297   1.270       .  A
O293        C296   1.274       .  A
O294        C306   1.270       .  A
O295        C308   1.274       .  A
C296        O301   1.266       .  A
C296       C2985   1.484       .  S
C297       C1604   1.479   1_565  S
O299        C302   1.268       .  A
O300        C302   1.275       .  A
C302       C1689   1.485       .  S
O303        C308   1.269       .  A
O304        C306   1.272       .  A
C305        O307   1.276       .  A
C305       C1748   1.480       .  S
C306       C1617   1.484       .  S
C308       C2121   1.482       .  S
Fe309       O325   2.094       .  S
Fe309       O315   2.040       .  S
Fe309       O322   2.049       .  S
Fe309       O314   2.081       .  S
Fe309       O320   1.946       .  S
Fe310       O313   2.076       .  S
Fe310       O317   2.051       .  S
Fe310       O321   2.082       .  S
Fe310       O326   2.037       .  S
Fe310       O320   1.943       .  S
Fe311       O329   2.069       .  S
Fe311       O316   2.103       .  S
Fe311       O323   2.096       .  S
Fe311       O312   2.064       .  S
Fe311       O320   1.950       .  S
O312        C319   1.270       .  A
O313        C327   1.270       .  A
O314        C319   1.272       .  A
O315        C318   1.270       .  A
O316        C328   1.279       .  A
O317        C330   1.269       .  A
C318        O323   1.278       .  A
C318       C2361   1.478       .  S
C319       C1556   1.488       .  S
O321        C324   1.271       .  A
O322        C324   1.267       .  A
C324       C1580   1.479       .  S
O325        C330   1.276       .  A
O326        C328   1.269       .  A
C327        O329   1.269       .  A
C327       C2217   1.487       .  S
C328       C1676   1.476       .  S
C330       C1521   1.478       .  S
Fe331       O347   2.089       .  S
Fe331       O337   2.048       .  S
Fe331       O344   2.052       .  S
Fe331       O336   2.085       .  S
Fe331       O342   1.948       .  S
Fe332       O335   2.078       .  S
Fe332       O339   2.049       .  S
Fe332       O343   2.086       .  S
Fe332       O348   2.039       .  S
Fe332       O342   1.947       .  S
Fe333       O351   2.060       .  S
Fe333       O338   2.102       .  S
Fe333       O345   2.099       .  S
Fe333       O334   2.065       .  S
Fe333       O342   1.953       .  S
O334        C341   1.270       .  A
O335        C349   1.272       .  A
O336        C341   1.273       .  A
O337        C340   1.270       .  A
O338        C350   1.278       .  A
O339        C352   1.267       .  A
C340        O345   1.278       .  A
C340       C2276   1.483       .  S
C341       C1473   1.489       .  S
O343        C346   1.273       .  A
O344        C346   1.268       .  A
C346       C1497   1.483       .  S
O347        C352   1.274       .  A
O348        C350   1.267       .  A
C349        O351   1.269       .  A
C349       C2708   1.485       .  S
C350       C1977   1.478       .  S
C352       C1532   1.480       .  S
Fe353       O369   2.047       .  S
Fe353       O359   2.092       .  S
Fe353       O366   2.093       .  S
Fe353       O358   2.051       .  S
Fe353       O364   1.958       .  S
Fe354       O357   2.058       .  S
Fe354       O361   2.093       .  S
Fe354       O365   2.066       .  S
Fe354       O370   2.090       .  S
Fe354       O364   1.956       .  S
Fe355       O373   2.083       .  S
Fe355       O360   2.055       .  S
Fe355       O367   2.055       .  S
Fe355       O356   2.091       .  S
Fe355       O364   1.956       .  S
O356        C363   1.274       .  A
O357        C371   1.268       .  A
O358        C363   1.269       .  A
O359        C362   1.275       .  A
O360        C372   1.271       .  A
O361        C374   1.275       .  A
C362        O367   1.269       .  A
C362       C1436   1.484       .  S
C363       C2612   1.485       .  S
O365        C368   1.270       .  A
O366        C368   1.274       .  A
C368       C1401   1.488       .  S
O369        C374   1.268       .  A
O370        C372   1.276       .  A
C371        O373   1.273       .  A
C371       C1377   1.484       .  S
C372       C2300   1.485       .  S
C374       C1460   1.485       .  S
Fe375       O391   2.047       .  S
Fe375       O381   2.091       .  S
Fe375       O388   2.105       .  S
Fe375       O380   2.049       .  S
Fe375       O386   1.951       .  S
Fe376       O379   2.041       .  S
Fe376       O383   2.096       .  S
Fe376       O387   2.061       .  S
Fe376       O392   2.090       .  S
Fe376       O386   1.952       .  S
Fe377       O395   2.093       .  S
Fe377       O382   2.056       .  S
Fe377       O389   2.059       .  S
Fe377       O378   2.096       .  S
Fe377       O386   1.957       .  S
O378        C385   1.278       .  A
O379        C393   1.267       .  A
O380        C385   1.271       .  A
O381        C384   1.273       .  A
O382        C394   1.268       .  A
O383        C396   1.275       .  A
C384        O389   1.267       .  A
C384       C1340   1.490       .  S
C385       C2516   1.483       .  S
O387        C390   1.269       .  A
O388        C390   1.276       .  A
C390       C1412   1.491       .  S
O391        C396   1.267       .  A
O392        C394   1.274       .  A
C393        O395   1.276       .  A
C393       C1305   1.478       .  S
C394       C2804   1.487       .  S
C396       C1364   1.486       .  S
Fe397       O413   2.089       .  S
Fe397       O403   2.041       .  S
Fe397       O410   2.041       .  S
Fe397       O402   2.076       .  S
Fe397       O408   1.959       .  S
Fe398       O401   2.081       .  S
Fe398       O405   2.066       .  S
Fe398       O409   2.088       .  S
Fe398       O414   2.043       .  S
Fe398       O408   1.960       .  S
Fe399       O417   2.068       .  S
Fe399       O404   2.091       .  S
Fe399       O411   2.092       .  S
Fe399       O400   2.077       .  S
Fe399       O408   1.967       .  S
O400        C407   1.271       .  A
O401        C415   1.273       .  A
O402        C407   1.271       .  A
O403        C406   1.269       .  A
O404        C416   1.275       .  A
O405        C418   1.270       .  A
C406        O411   1.275       .  A
C406       C1209   1.473   1_545  S
C407       C2073   1.492       .  S
O409        C412   1.273       .  A
O410        C412   1.265       .  A
C412       C2961   1.482       .  S
O413        C418   1.273       .  A
O414        C416   1.268       .  A
C415        O417   1.271       .  A
C415       C1292   1.490       .  S
C416       C1233   1.480       .  S
C418       C1257   1.489       .  S
Fe419       O435   2.087       .  S
Fe419       O425   2.044       .  S
Fe419       O432   2.043       .  S
Fe419       O424   2.077       .  S
Fe419       O430   1.960       .  S
Fe420       O423   2.077       .  S
Fe420       O427   2.065       .  S
Fe420       O431   2.088       .  S
Fe420       O436   2.045       .  S
Fe420       O430   1.964       .  S
Fe421       O439   2.063       .  S
Fe421       O426   2.093       .  S
Fe421       O433   2.089       .  S
Fe421       O422   2.068       .  S
Fe421       O430   1.970       .  S
O422        C429   1.269       .  A
O423        C437   1.271       .  A
O424        C429   1.270       .  A
O425        C428   1.270       .  A
O426        C438   1.276       .  A
O427        C440   1.269       .  A
C428        O433   1.277       .  A
C428       C1172   1.481   1_545  S
C429       C2540   1.485       .  S
O431        C434   1.273       .  A
O432        C434   1.266       .  A
C434       C2817   1.482       .  S
O435        C440   1.273       .  A
O436        C438   1.269       .  A
C437        O439   1.269       .  A
C437       C1196   1.488       .  S
C438       C1316   1.478       .  S
C440       C1268   1.488       .  S
Fe441       O457   2.047   1_455  S
Fe441       O447   2.087       .  S
Fe441       O454   2.096       .  S
Fe441       O446   2.043       .  S
Fe441       O452   1.958       .  S
Fe442       O445   2.049       .  S
Fe442       O449   2.088       .  S
Fe442       O453   2.059       .  S
Fe442       O458   2.088       .  S
Fe442       O452   1.958       .  S
Fe443       O461   2.088       .  S
Fe443       O448   2.061       .  S
Fe443       O455   2.066       .  S
Fe443       O444   2.085       .  S
Fe443       O452   1.956       .  S
O444        C451   1.275       .  A
O445        C459   1.269       .  A
O446        C451   1.269       .  A
O447        C450   1.272       .  A
O448        C460   1.268       .  A
O449        C462   1.273   1_455  A
C450        O455   1.269       .  A
C450       C1124   1.492   1_455  S
C451       C2156   1.473       .  S
O453        C456   1.270       .  A
O454        C456   1.275       .  A
C456       C1100   1.488       .  S
O457        C462   1.267       .  A
O458        C460   1.272       .  A
C459        O461   1.276       .  A
C459       C1076   1.480       .  S
C460       C2433   1.491       .  S
C462       C1148   1.483       .  S
Fe463       O479   2.046       .  S
Fe463       O469   2.091       .  S
Fe463       O476   2.102       .  S
Fe463       O468   2.041       .  S
Fe463       O474   1.951       .  S
Fe464       O467   2.036       .  S
Fe464       O471   2.091       .  S
Fe464       O475   2.050       .  S
Fe464       O480   2.089       .  S
Fe464       O474   1.949       .  S
Fe465       O483   2.100       .  S
Fe465       O470   2.051       .  S
Fe465       O477   2.055       .  S
Fe465       O466   2.092       .  S
Fe465       O474   1.951       .  S
O466        C473   1.275       .  A
O467        C481   1.266       .  A
O468        C473   1.268       .  A
O469        C472   1.275       .  A
O470        C482   1.267       .  A
O471        C484   1.273       .  A
C472        O477   1.268       .  A
C472       C1028   1.482       .  S
C473       C2060   1.473       .  S
O475        C478   1.268       .  A
O476        C478   1.277       .  A
C478       C1089   1.481       .  S
O479        C484   1.266       .  A
O480        C482   1.273       .  A
C481        O483   1.277       .  A
C481       C1244   1.480       .  S
C482       C2948   1.483       .  S
C484       C1041   1.482       .  S
Fe485       O501   2.093       .  S
Fe485       O491   2.043       .  S
Fe485       O498   2.046       .  S
Fe485       O490   2.092       .  S
Fe485       O496   1.946       .  S
Fe486       O489   2.082       .  S
Fe486       O493   2.060       .  S
Fe486       O497   2.091       .  S
Fe486       O502   2.047       .  S
Fe486       O496   1.950       .  S
Fe487       O505   2.057       .  S
Fe487       O492   2.086       .  S
Fe487       O499   2.090       .  S
Fe487       O488   2.063       .  S
Fe487       O496   1.953       .  S
O488        C495   1.268       .  A
O489        C503   1.274       .  A
O490        C495   1.274       .  A
O491        C494   1.269       .  A
O492        C504   1.274       .  A
O493        C506   1.267       .  A
C494        O499   1.275       .  A
C494        C956   1.477   1_545  S
C495       C2193   1.492   1_655  S
O497        C500   1.275   1_655  A
O498        C500   1.268   1_655  A
C500       C2457   1.482       .  S
O501        C506   1.274       .  A
O502        C504   1.268       .  A
C503        O505   1.269       .  A
C503       C1004   1.484       .  S
C504       C1065   1.480       .  S
C506        C969   1.489       .  S
Fe507       O523   2.082       .  S
Fe507       O513   2.040       .  S
Fe507       O520   2.042       .  S
Fe507       O512   2.082       .  S
Fe507       O518   1.958       .  S
Fe508       O511   2.081       .  S
Fe508       O515   2.068       .  S
Fe508       O519   2.082       .  S
Fe508       O524   2.051       .  S
Fe508       O518   1.957       .  S
Fe509       O527   2.063       .  S
Fe509       O514   2.090       .  S
Fe509       O521   2.090       .  S
Fe509       O510   2.065       .  S
Fe509       O518   1.958       .  S
O510        C517   1.268       .  A
O511        C525   1.271       .  A
O512        C517   1.271       .  A
O513        C516   1.269       .  A
O514        C526   1.276       .  A
O515        C528   1.270       .  A
C516        O521   1.277       .  A
C516        C897   1.477   1_545  S
C517       C2673   1.491       .  S
O519        C522   1.273       .  A
O520        C522   1.268       .  A
C522       C2313   1.472       .  S
O523        C528   1.271       .  A
O524        C526   1.271       .  A
C525        O527   1.269       .  A
C525        C932   1.490       .  S
C526       C1388   1.484       .  S
C528        C980   1.484       .  S
Fe529       O545   2.095       .  S
Fe529       O535   2.045       .  S
Fe529       O542   2.055   1_655  S
Fe529       O534   2.099       .  S
Fe529       O540   1.958       .  S
Fe530       O533   2.086       .  S
Fe530       O537   2.060       .  S
Fe530       O541   2.083       .  S
Fe530       O546   2.048       .  S
Fe530       O540   1.955       .  S
Fe531       O549   2.052       .  S
Fe531       O536   2.082       .  S
Fe531       O543   2.084       .  S
Fe531       O532   2.044       .  S
Fe531       O540   1.957       .  S
O532        C539   1.265   1_655  A
O533        C547   1.273       .  A
O534        C539   1.274   1_655  A
O535        C538   1.269       .  A
O536        C548   1.273       .  A
O537        C550   1.270       .  A
C538        O543   1.273       .  A
C538        C908   1.474       .  S
C539       C2025   1.485       .  S
O541        C544   1.273   1_655  A
O542        C544   1.269       .  A
C544       C1508   1.484       .  S
O545        C550   1.275       .  A
O546        C548   1.268       .  A
C547        O549   1.268       .  A
C547       C1425   1.485       .  S
C548        C860   1.479       .  S
C550        C873   1.491       .  S
Fe551       O567   2.094       .  S
Fe551       O557   2.043       .  S
Fe551       O564   2.051       .  S
Fe551       O556   2.094       .  S
Fe551       O562   1.957       .  S
Fe552       O555   2.085       .  S
Fe552       O559   2.058       .  S
Fe552       O563   2.080       .  S
Fe552       O568   2.048       .  S
Fe552       O562   1.953       .  S
Fe553       O571   2.063       .  S
Fe553       O558   2.077       .  S
Fe553       O565   2.086       .  S
Fe553       O554   2.053       .  S
Fe553       O562   1.956       .  S
O554        C561   1.267       .  A
O555        C569   1.274       .  A
O556        C561   1.273       .  A
O557        C560   1.268       .  A
O558        C570   1.272       .  A
O559        C572   1.270       .  A
C560        O565   1.274       .  A
C560        C945   1.477       .  S
C561       C1713   1.482       .  S
O563        C566   1.272       .  A
O564        C566   1.268       .  A
C566       C1569   1.481       .  S
O567        C572   1.275       .  A
O568        C570   1.268       .  A
C569        O571   1.271       .  A
C569       C1113   1.490       .  S
C570        C825   1.478       .  S
C572        C884   1.488       .  S
Fe573       O589   2.044   1_455  S
Fe573       O579   2.095       .  S
Fe573       O586   2.093       .  S
Fe573       O578   2.043       .  S
Fe573       O584   1.954       .  S
Fe574       O577   2.049       .  S
Fe574       O581   2.095       .  S
Fe574       O585   2.058       .  S
Fe574       O590   2.085       .  S
Fe574       O584   1.951       .  S
Fe575       O593   2.082       .  S
Fe575       O580   2.064       .  S
Fe575       O587   2.062       .  S
Fe575       O576   2.088       .  S
Fe575       O584   1.953       .  S
O576        C583   1.275       .  A
O577        C591   1.269       .  A
O578        C583   1.269       .  A
O579        C582   1.274       .  A
O580        C592   1.271       .  A
O581        C594   1.276   1_455  A
C582        O587   1.269       .  A
C582        C921   1.490   1_455  S
C583       C1964   1.478       .  S
O585        C588   1.268       .  A
O586        C588   1.273       .  A
C588        C812   1.480       .  S
O589        C594   1.268       .  A
O590        C592   1.273       .  A
C591        O593   1.274       .  A
C591        C849   1.480       .  S
C592       C1484   1.489       .  S
C594       C1449   1.484       .  S
Fe595       O611   2.055       .  S
Fe595       O601   2.063       .  S
Fe595       O608   2.078       .  S
Fe595       O600   2.058       .  S
Fe595       O606   1.967       .  S
Fe596       O599   2.052       .  S
Fe596       O603   2.084       .  S
Fe596       O607   2.066       .  S
Fe596       O612   2.081       .  S
Fe596       O606   1.967       .  S
Fe597       O615   2.084       .  S
Fe597       O602   2.065       .  S
Fe597       O609   2.071       .  S
Fe597       O598   2.081       .  S
Fe597       O606   1.964       .  S
O598        C605   1.275       .  A
O599        C613   1.270       .  A
O600        C605   1.273       .  A
O601        C604   1.267       .  A
O602        C614   1.269       .  A
O603        C616   1.273       .  A
C604        O609   1.269       .  A
C604       C1185   1.486       .  S
C605       C1892   1.474       .  S
O607        C610   1.269       .  A
O608        C610   1.271       .  A
C610        C801   1.485       .  S
O611        C616   1.268       .  A
O612        C614   1.272       .  A
C613        O615   1.276       .  A
C613        C788   1.483       .  S
C614       C1844   1.492       .  S
C616       C1353   1.486       .  S
Fe617       O633   2.095       .  S
Fe617       O623   2.041       .  S
Fe617       O630   2.041       .  S
Fe617       O622   2.095       .  S
Fe617       O628   1.957       .  S
Fe618       O621   2.085       .  S
Fe618       O625   2.074       .  S
Fe618       O629   2.091       .  S
Fe618       O634   2.062       .  S
Fe618       O628   1.951       .  S
Fe619       O637   2.064       .  S
Fe619       O624   2.076       .  S
Fe619       O631   2.089       .  S
Fe619       O620   2.051       .  S
Fe619       O628   1.954       .  S
O620        C627   1.266       .  A
O621        C635   1.274       .  A
O622        C627   1.273       .  A
O623        C626   1.268       .  A
O624        C636   1.272       .  A
O625        C638   1.270       .  A
C626        O631   1.275       .  A
C626       C1161   1.469       .  S
C627       C1940   1.486       .  S
O629        C632   1.276       .  A
O630        C632   1.268       .  A
C632       C1868   1.480       .  S
O633        C638   1.272       .  A
O634        C636   1.271       .  A
C635        O637   1.272       .  A
C635       C1329   1.489       .  S
C636        C777   1.483       .  S
C638        C764   1.490       .  S
Fe639       O655   2.101       .  S
Fe639       O645   2.046       .  S
Fe639       O652   2.054       .  S
Fe639       O644   2.086       .  S
Fe639       O650   1.962       .  S
Fe640       O643   2.077       .  S
Fe640       O647   2.067       .  S
Fe640       O651   2.078       .  S
Fe640       O656   2.049       .  S
Fe640       O650   1.958       .  S
Fe641       O659   2.061       .  S
Fe641       O646   2.095       .  S
Fe641       O653   2.089       .  S
Fe641       O642   2.059       .  S
Fe641       O650   1.964       .  S
O642        C649   1.268       .  A
O643        C657   1.271       .  A
O644        C649   1.273       .  A
O645        C648   1.270       .  A
O646        C658   1.276       .  A
O647        C660   1.271       .  A
C648        O653   1.276       .  A
C648       C1220   1.477       .  S
C649       C1628   1.488       .  S
O651        C654   1.271       .  A
O652        C654   1.267       .  A
C654       C1785   1.479       .  S
O655        C660   1.276       .  A
O656        C658   1.269       .  A
C657        O659   1.268       .  A
C657       C1017   1.485       .  S
C658        C729   1.483       .  S
C660        C753   1.494       .  S
Fe661       O677   2.053       .  S
Fe661       O667   2.081       .  S
Fe661       O674   2.100       .  S
Fe661       O666   2.050       .  S
Fe661       O672   1.956       .  S
Fe662       O665   2.053       .  S
Fe662       O669   2.085       .  S
Fe662       O673   2.066       .  S
Fe662       O678   2.080       .  S
Fe662       O672   1.952       .  S
Fe663       O681   2.077       .  S
Fe663       O668   2.063       .  S
Fe663       O675   2.058       .  S
Fe663       O664   2.080       .  S
Fe663       O672   1.955       .  S
O664        C671   1.274       .  A
O665        C679   1.270       .  A
O666        C671   1.272       .  A
O667        C670   1.271       .  A
O668        C680   1.269       .  A
O669        C682   1.272       .  A
C670        O675   1.267       .  A
C670        C993   1.481       .  S
C671       C1652   1.470       .  S
O673        C676   1.270       .  A
O674        C676   1.276       .  A
C676        C705   1.487       .  S
O677        C682   1.268       .  A
O678        C680   1.272       .  A
C679        O681   1.273       .  A
C679        C836   1.479       .  S
C680       C1545   1.488       .  S
C682       C1137   1.482       .  S
Fe683       O699   2.050       .  S
Fe683       O689   2.087       .  S
Fe683       O696   2.089       .  S
Fe683       O688   2.051       .  S
Fe683       O694   1.950       .  S
Fe684       O687   2.048       .  S
Fe684       O691   2.093       .  S
Fe684       O695   2.074       .  S
Fe684       O700   2.092       .  S
Fe684       O694   1.954       .  S
Fe685       O703   2.094       .  S
Fe685       O690   2.067       .  S
Fe685       O697   2.072       .  S
Fe685       O686   2.090       .  S
Fe685       O694   1.958       .  S
O686        C693   1.275       .  A
O687        C701   1.268       .  A
O688        C693   1.269       .  A
O689        C692   1.274       .  A
O690        C702   1.271       .  A
O691        C704   1.275       .  A
C692        O697   1.272       .  A
C692       C1281   1.492       .  S
C693       C1593   1.480       .  S
O695        C698   1.271       .  A
O696        C698   1.274       .  A
C698        C716   1.491       .  S
O699        C704   1.268       .  A
O700        C702   1.275       .  A
C701        O703   1.275       .  A
C701        C740   1.481       .  S
C702       C1761   1.484       .  S
C704       C1052   1.486       .  S
C705        C706   1.406       .  A
C705        C710   1.406       .  A
C706        C707   1.403       .  A
C706        H719   1.083       .  S
C707        C708   1.405       .  A
C707        H720   1.083       .  S
C708        C709   1.409       .  A
C708        C711   1.495       .  S
C709        C710   1.404       .  A
C709        H721   1.082       .  S
C710        H722   1.083       .  S
C711        C712   1.349       .  D
C711        H723   1.086       .  S
C712        C713   1.493       .  S
C712        H724   1.086       .  S
C713        C714   1.403       .  A
C713        C718   1.409       .  A
C714        C715   1.400       .  A
C714        H725   1.083       .  S
C715        C716   1.406       .  A
C715        H726   1.083       .  S
C716        C717   1.409       .  A
C717        C718   1.407       .  A
C717        H727   1.083       .  S
C718        H728   1.082       .  S
C729        C730   1.407       .  A
C729        C734   1.406       .  A
C730        C731   1.395       .  A
C730        H743   1.083       .  S
C731        C732   1.400       .  A
C731        H744   1.083       .  S
C732        C733   1.408       .  A
C732        C735   1.482       .  S
C733        C734   1.402       .  A
C733        H745   1.083       .  S
C734        H746   1.083       .  S
C735        C736   1.346       .  D
C735        H747   1.085       .  S
C736        C737   1.486       .  S
C736        H748   1.086       .  S
C737        C738   1.402       .  A
C737        C742   1.409       .  A
C738        C739   1.396       .  A
C738        H749   1.084       .  S
C739        C740   1.407       .  A
C739        H750   1.083       .  S
C740        C741   1.405       .  A
C741        C742   1.400       .  A
C741        H751   1.083       .  S
C742        H752   1.081       .  S
C753        C754   1.408       .  A
C753        C758   1.408       .  A
C754        C755   1.403       .  A
C754        H767   1.083       .  S
C755        C756   1.405       .  A
C755        H768   1.083       .  S
C756        C757   1.408       .  A
C756        C759   1.496       .  S
C757        C758   1.406       .  A
C757        H769   1.082       .  S
C758        H770   1.083       .  S
C759        C760   1.351       .  D
C759        H771   1.086       .  S
C760        C761   1.496       .  S
C760        H772   1.086       .  S
C761        C762   1.405       .  A
C761        C766   1.409       .  A
C762        C763   1.402       .  A
C762        H773   1.083       .  S
C763        C764   1.405       .  A
C763        H774   1.083       .  S
C764        C765   1.408       .  A
C765        C766   1.407       .  A
C765        H775   1.083       .  S
C766        H776   1.082       .  S
C777        C778   1.407       .  A
C777        C782   1.405       .  A
C778        C779   1.400       .  A
C778        H791   1.083       .  S
C779        C780   1.403       .  A
C779        H792   1.083       .  S
C780        C781   1.407       .  A
C780        C783   1.486       .  S
C781        C782   1.396       .  A
C781        H793   1.082       .  S
C782        H794   1.083       .  S
C783        C784   1.348       .  D
C783        H795   1.086       .  S
C784        C785   1.482       .  S
C784        H796   1.085       .  S
C785        C786   1.403       .  A
C785        C790   1.405       .  A
C786        C787   1.397       .  A
C786        H797   1.083       .  S
C787        C788   1.405       .  A
C787        H798   1.083       .  S
C788        C789   1.409       .  A
C789        C790   1.398       .  A
C789        H799   1.083       .  S
C790        H800   1.082       .  S
C801        C802   1.407       .  A
C801        C806   1.407       .  A
C802        C803   1.398       .  A
C802        H815   1.083       .  S
C803        C804   1.402       .  A
C803        H816   1.083       .  S
C804        C805   1.407       .  A
C804        C807   1.485       .  S
C805        C806   1.401       .  A
C805        H817   1.083       .  S
C806        H818   1.083       .  S
C807        C808   1.346       .  D
C807        H819   1.086       .  S
C808        C809   1.487       .  S
C808        H820   1.086       .  S
C809        C810   1.404       .  A
C809        C814   1.407       .  A
C810        C811   1.401       .  A
C810        H821   1.083       .  S
C811        C812   1.404       .  A
C811        H822   1.083       .  S
C812        C813   1.405       .  A
C813        C814   1.400       .  A
C813        H823   1.083       .  S
C814        H824   1.082       .  S
C825        C826   1.406       .  A
C825        C830   1.406       .  A
C826        C827   1.397       .  A
C826        H839   1.083       .  S
C827        C828   1.402       .  A
C827        H840   1.083       .  S
C828        C829   1.405       .  A
C828        C831   1.479       .  S
C829        C830   1.394       .  A
C829        H841   1.082       .  S
C830        H842   1.083       .  S
C831        C832   1.347       .  D
C831        H843   1.084       .  S
C832        C833   1.482       .  S
C832        H844   1.085       .  S
C833        C834   1.403       .  A
C833        C838   1.406       .  A
C834        C835   1.397       .  A
C834        H845   1.083       .  S
C835        C836   1.406       .  A
C835        H846   1.083       .  S
C836        C837   1.405       .  A
C837        C838   1.394       .  A
C837        H847   1.083       .  S
C838        H848   1.082       .  S
C849        C850   1.406       .  A
C849        C854   1.406       .  A
C850        C851   1.398   1_554  A
C850        H863   1.083       .  S
C851        C852   1.403   1_556  A
C851        H864   1.083       .  S
C852        C853   1.405       .  A
C852        C855   1.481   1_554  S
C853        C854   1.394       .  A
C853        H865   1.082   1_455  S
C854        H866   1.083       .  S
C855        C856   1.348   1_556  D
C855        H867   1.086       .  S
C856        C857   1.479   1_554  S
C856        H868   1.085       .  S
C857        C858   1.403   1_456  A
C857        C862   1.404       .  A
C858        C859   1.398   1_554  A
C858        H869   1.083       .  S
C859        C860   1.406       .  A
C859        H870   1.083   1_556  S
C860        C861   1.406   1_655  A
C861        C862   1.395       .  A
C861        H871   1.083       .  S
C862        H872   1.082       .  S
C873        C874   1.407       .  A
C873        C878   1.408       .  A
C874        C875   1.402       .  A
C874        H887   1.083       .  S
C875        C876   1.405       .  A
C875        H888   1.083       .  S
C876        C877   1.408       .  A
C876        C879   1.494       .  S
C877        C878   1.401       .  A
C877        H889   1.082       .  S
C878        H890   1.083       .  S
C879        C880   1.350       .  D
C879        H891   1.085       .  S
C880        C881   1.493       .  S
C880        H892   1.085       .  S
C881        C882   1.404       .  A
C881        C886   1.409       .  A
C882        C883   1.399       .  A
C882        H893   1.083       .  S
C883        C884   1.406       .  A
C883        H894   1.083       .  S
C884        C885   1.408       .  A
C885        C886   1.404       .  A
C885        H895   1.083       .  S
C886        H896   1.081       .  S
C897        C898   1.406       .  A
C897        C902   1.405       .  A
C898        C899   1.392       .  A
C898        H911   1.083       .  S
C899        C900   1.401       .  A
C899        H912   1.084       .  S
C900        C901   1.407       .  A
C900        C903   1.479       .  S
C901        C902   1.398       .  A
C901        H913   1.081       .  S
C902        H914   1.083       .  S
C903        C904   1.346       .  D
C903        H915   1.085       .  S
C904        C905   1.482       .  S
C904        H916   1.085       .  S
C905        C906   1.403       .  A
C905        C910   1.406       .  A
C906        C907   1.399       .  A
C906        H917   1.083       .  S
C907        C908   1.405       .  A
C907        H918   1.083       .  S
C908        C909   1.403       .  A
C909        C910   1.392       .  A
C909        H919   1.083       .  S
C910        H920   1.082       .  S
C921        C922   1.406       .  A
C921        C926   1.407       .  A
C922        C923   1.400   1_554  A
C922        H935   1.083       .  S
C923        C924   1.404       .  A
C923        H936   1.084       .  S
C924        C925   1.410   1_556  A
C924        C927   1.495       .  S
C925        C926   1.404       .  A
C925        H937   1.081       .  S
C926        H938   1.083       .  S
C927        C928   1.351       .  D
C927        H939   1.084       .  S
C928        C929   1.498       .  S
C928        H940   1.085       .  S
C929        C930   1.405       .  A
C929        C934   1.411       .  A
C930        C931   1.399       .  A
C930        H941   1.083       .  S
C931        C932   1.406       .  A
C931        H942   1.083       .  S
C932        C933   1.408       .  A
C933        C934   1.404       .  A
C933        H943   1.083       .  S
C934        H944   1.080       .  S
C945        C946   1.405       .  A
C945        C950   1.406       .  A
C946        C947   1.393       .  A
C946        H959   1.083       .  S
C947        C948   1.401       .  A
C947        H960   1.084       .  S
C948        C949   1.406       .  A
C948        C951   1.477       .  S
C949        C950   1.399       .  A
C949        H961   1.082       .  S
C950        H962   1.083       .  S
C951        C952   1.346       .  D
C951        H963   1.086       .  S
C952        C953   1.481       .  S
C952        H964   1.085       .  S
C953        C954   1.403       .  A
C953        C958   1.406       .  A
C954        C955   1.400       .  A
C954        H965   1.083       .  S
C955        C956   1.406       .  A
C955        H966   1.083       .  S
C956        C957   1.404       .  A
C957        C958   1.392       .  A
C957        H967   1.083       .  S
C958        H968   1.082       .  S
C969        C970   1.406       .  A
C969        C974   1.409       .  A
C970        C971   1.399       .  A
C970        H983   1.083       .  S
C971        C972   1.403       .  A
C971        H984   1.083       .  S
C972        C973   1.406       .  A
C972        C975   1.487       .  S
C973        C974   1.403       .  A
C973        H985   1.083       .  S
C974        H986   1.083       .  S
C975        C976   1.346       .  D
C975        H987   1.087       .  S
C976        C977   1.486       .  S
C976        H988   1.086       .  S
C977        C978   1.402       .  A
C977        C982   1.407       .  A
C978        C979   1.399       .  A
C978        H989   1.083       .  S
C979        C980   1.407       .  A
C979        H990   1.083       .  S
C980        C981   1.406       .  A
C981        C982   1.402       .  A
C981        H991   1.083       .  S
C982        H992   1.083       .  S
C993        C994   1.405       .  A
C993        C998   1.406       .  A
C994        C995   1.399       .  A
C994       H1007   1.083       .  S
C995        C996   1.403       .  A
C995       H1008   1.083       .  S
C996        C997   1.407       .  A
C996        C999   1.485       .  S
C997        C998   1.399       .  A
C997       H1009   1.082       .  S
C998       H1010   1.083       .  S
C999       C1000   1.349       .  D
C999       H1011   1.084       .  S
C1000      C1001   1.488       .  S
C1000      H1012   1.085       .  S
C1001      C1002   1.403       .  A
C1001      C1006   1.408       .  A
C1002      C1003   1.398       .  A
C1002      H1013   1.083       .  S
C1003      C1004   1.407       .  A
C1003      H1014   1.083       .  S
C1004      C1005   1.406       .  A
C1005      C1006   1.398       .  A
C1005      H1015   1.083       .  S
C1006      H1016   1.081       .  S
C1017      C1018   1.406       .  A
C1017      C1022   1.407       .  A
C1018      C1019   1.399       .  A
C1018      H1031   1.083       .  S
C1019      C1020   1.404       .  A
C1019      H1032   1.083       .  S
C1020      C1021   1.407       .  A
C1020      C1023   1.489       .  S
C1021      C1022   1.400       .  A
C1021      H1033   1.081       .  S
C1022      H1034   1.083       .  S
C1023      C1024   1.349       .  D
C1023      H1035   1.086       .  S
C1024      C1025   1.487       .  S
C1024      H1036   1.085       .  S
C1025      C1026   1.404       .  A
C1025      C1030   1.408       .  A
C1026      C1027   1.400       .  A
C1026      H1037   1.084       .  S
C1027      C1028   1.406       .  A
C1027      H1038   1.083       .  S
C1028      C1029   1.405       .  A
C1029      C1030   1.399       .  A
C1029      H1039   1.083       .  S
C1030      H1040   1.082       .  S
C1041      C1042   1.406       .  A
C1041      C1046   1.406       .  A
C1042      C1043   1.396       .  A
C1042      H1055   1.083       .  S
C1043      C1044   1.402       .  A
C1043      H1056   1.083       .  S
C1044      C1045   1.409       .  A
C1044      C1047   1.489       .  S
C1045      C1046   1.401       .  A
C1045      H1057   1.081       .  S
C1046      H1058   1.083       .  S
C1047      C1048   1.348       .  D
C1047      H1059   1.084       .  S
C1048      C1049   1.490       .  S
C1048      H1060   1.085       .  S
C1049      C1050   1.403       .  A
C1049      C1054   1.410       .  A
C1050      C1051   1.397       .  A
C1050      H1061   1.083       .  S
C1051      C1052   1.406       .  A
C1051      H1062   1.083       .  S
C1052      C1053   1.406       .  A
C1053      C1054   1.401       .  A
C1053      H1063   1.083       .  S
C1054      H1064   1.080       .  S
C1065      C1066   1.405       .  A
C1065      C1070   1.407       .  A
C1066      C1067   1.398       .  A
C1066      H1079   1.083       .  S
C1067      C1068   1.403       .  A
C1067      H1080   1.083       .  S
C1068      C1069   1.406       .  A
C1068      C1071   1.484       .  S
C1069      C1070   1.395       .  A
C1069      H1081   1.082   1_655  S
C1070      H1082   1.083       .  S
C1071      C1072   1.348       .  D
C1071      H1083   1.085       .  S
C1072      C1073   1.482       .  S
C1072      H1084   1.085       .  S
C1073      C1074   1.403   1_655  A
C1073      C1078   1.406       .  A
C1074      C1075   1.397       .  A
C1074      H1085   1.083       .  S
C1075      C1076   1.405       .  A
C1075      H1086   1.083       .  S
C1076      C1077   1.407   1_455  A
C1077      C1078   1.397       .  A
C1077      H1087   1.083       .  S
C1078      H1088   1.082       .  S
C1089      C1090   1.406       .  A
C1089      C1094   1.405       .  A
C1090      C1091   1.399       .  A
C1090      H1103   1.083       .  S
C1091      C1092   1.403       .  A
C1091      H1104   1.083       .  S
C1092      C1093   1.408       .  A
C1092      C1095   1.487       .  S
C1093      C1094   1.401       .  A
C1093      H1105   1.082       .  S
C1094      H1106   1.083       .  S
C1095      C1096   1.347       .  D
C1095      H1107   1.086       .  S
C1096      C1097   1.487       .  S
C1096      H1108   1.087       .  S
C1097      C1098   1.402       .  A
C1097      C1102   1.407       .  A
C1098      C1099   1.399       .  A
C1098      H1109   1.083       .  S
C1099      C1100   1.407       .  A
C1099      H1110   1.083       .  S
C1100      C1101   1.408       .  A
C1101      C1102   1.403       .  A
C1101      H1111   1.083       .  S
C1102      H1112   1.083       .  S
C1113      C1114   1.407       .  A
C1113      C1118   1.408       .  A
C1114      C1115   1.400       .  A
C1114      H1127   1.083       .  S
C1115      C1116   1.404       .  A
C1115      H1128   1.083       .  S
C1116      C1117   1.408       .  A
C1116      C1119   1.493       .  S
C1117      C1118   1.403       .  A
C1117      H1129   1.082       .  S
C1118      H1130   1.083       .  S
C1119      C1120   1.352       .  D
C1119      H1131   1.082       .  S
C1120      C1121   1.499       .  S
C1120      H1132   1.086       .  S
C1121      C1122   1.406       .  A
C1121      C1126   1.411       .  A
C1122      C1123   1.401       .  A
C1122      H1133   1.084       .  S
C1123      C1124   1.407       .  A
C1123      H1134   1.083       .  S
C1124      C1125   1.407       .  A
C1125      C1126   1.402       .  A
C1125      H1135   1.083       .  S
C1126      H1136   1.079       .  S
C1137      C1138   1.406       .  A
C1137      C1142   1.406       .  A
C1138      C1139   1.398       .  A
C1138      H1151   1.083       .  S
C1139      C1140   1.403       .  A
C1139      H1152   1.083       .  S
C1140      C1141   1.408       .  A
C1140      C1143   1.487       .  S
C1141      C1142   1.397       .  A
C1141      H1153   1.081       .  S
C1142      H1154   1.083       .  S
C1143      C1144   1.348       .  D
C1143      H1155   1.084       .  S
C1144      C1145   1.489       .  S
C1144      H1156   1.085       .  S
C1145      C1146   1.405       .  A
C1145      C1150   1.409       .  A
C1146      C1147   1.398       .  A
C1146      H1157   1.083       .  S
C1147      C1148   1.405       .  A
C1147      H1158   1.083       .  S
C1148      C1149   1.406       .  A
C1149      C1150   1.397       .  A
C1149      H1159   1.083       .  S
C1150      H1160   1.080       .  S
C1161      C1162   1.402       .  A
C1161      C1166   1.403       .  A
C1162      C1163   1.394       .  A
C1162      H1175   1.083       .  S
C1163      C1164   1.403       .  A
C1163      H1176   1.084       .  S
C1164      C1165   1.408       .  A
C1164      C1167   1.481       .  S
C1165      C1166   1.398       .  A
C1165      H1177   1.081       .  S
C1166      H1178   1.083       .  S
C1167      C1168   1.347       .  D
C1167      H1179   1.086       .  S
C1168      C1169   1.482       .  S
C1168      H1180   1.084       .  S
C1169      C1170   1.405       .  A
C1169      C1174   1.403       .  A
C1170      C1171   1.392       .  A
C1170      H1181   1.082       .  S
C1171      C1172   1.406       .  A
C1171      H1182   1.083       .  S
C1172      C1173   1.406       .  A
C1173      C1174   1.401       .  A
C1173      H1183   1.083       .  S
C1174      H1184   1.083       .  S
C1185      C1186   1.406       .  A
C1185      C1190   1.405       .  A
C1186      C1187   1.398       .  A
C1186      H1199   1.083       .  S
C1187      C1188   1.405       .  A
C1187      H1200   1.084       .  S
C1188      C1189   1.411       .  A
C1188      C1191   1.496       .  S
C1189      C1190   1.401       .  A
C1189      H1201   1.079       .  S
C1190      H1202   1.083       .  S
C1191      C1192   1.351       .  D
C1191      H1203   1.086       .  S
C1192      C1193   1.490       .  S
C1192      H1204   1.083       .  S
C1193      C1194   1.404       .  A
C1193      C1198   1.408       .  A
C1194      C1195   1.400       .  A
C1194      H1205   1.084       .  S
C1195      C1196   1.407       .  A
C1195      H1206   1.083       .  S
C1196      C1197   1.408       .  A
C1197      C1198   1.400       .  A
C1197      H1207   1.083       .  S
C1198      H1208   1.082       .  S
C1209      C1210   1.404       .  A
C1209      C1214   1.404       .  A
C1210      C1211   1.403       .  A
C1210      H1223   1.083       .  S
C1211      C1212   1.405       .  A
C1211      H1224   1.083       .  S
C1212      C1213   1.402       .  A
C1212      C1215   1.478       .  S
C1213      C1214   1.391       .  A
C1213      H1225   1.083       .  S
C1214      H1226   1.083       .  S
C1215      C1216   1.346       .  D
C1215      H1227   1.087       .  S
C1216      C1217   1.476       .  S
C1216      H1228   1.087       .  S
C1217      C1218   1.403       .  A
C1217      C1222   1.402       .  A
C1218      C1219   1.401       .  A
C1218      H1229   1.083       .  S
C1219      C1220   1.405       .  A
C1219      H1230   1.083       .  S
C1220      C1221   1.406       .  A
C1221      C1222   1.393       .  A
C1221      H1231   1.083       .  S
C1222      H1232   1.083       .  S
C1233      C1234   1.406       .  A
C1233      C1238   1.405       .  A
C1234      C1235   1.394       .  A
C1234      H1247   1.083       .  S
C1235      C1236   1.401       .  A
C1235      H1248   1.083       .  S
C1236      C1237   1.410       .  A
C1236      C1239   1.485       .  S
C1237      C1238   1.400       .  A
C1237      H1249   1.081       .  S
C1238      H1250   1.083       .  S
C1239      C1240   1.345       .  D
C1239      H1251   1.086       .  S
C1240      C1241   1.483       .  S
C1240      H1252   1.084       .  S
C1241      C1242   1.399       .  A
C1241      C1246   1.409       .  A
C1242      C1243   1.394       .  A
C1242      H1253   1.084       .  S
C1243      C1244   1.408       .  A
C1243      H1254   1.083       .  S
C1244      C1245   1.405       .  A
C1245      C1246   1.400       .  A
C1245      H1255   1.083       .  S
C1246      H1256   1.082       .  S
C1257      C1258   1.408       .  A
C1257      C1262   1.408       .  A
C1258      C1259   1.401       .  A
C1258      H1271   1.083       .  S
C1259      C1260   1.403       .  A
C1259      H1272   1.083       .  S
C1260      C1261   1.406       .  A
C1260      C1263   1.487       .  S
C1261      C1262   1.402       .  A
C1261      H1273   1.083       .  S
C1262      H1274   1.083       .  S
C1263      C1264   1.346       .  D
C1263      H1275   1.087       .  S
C1264      C1265   1.486       .  S
C1264      H1276   1.087       .  S
C1265      C1266   1.402       .  A
C1265      C1270   1.406       .  A
C1266      C1267   1.400       .  A
C1266      H1277   1.083       .  S
C1267      C1268   1.407       .  A
C1267      H1278   1.083       .  S
C1268      C1269   1.408       .  A
C1269      C1270   1.403       .  A
C1269      H1279   1.083       .  S
C1270      H1280   1.083       .  S
C1281      C1282   1.406       .  A
C1281      C1286   1.408       .  A
C1282      C1283   1.398       .  A
C1282      H1295   1.083       .  S
C1283      C1284   1.405       .  A
C1283      H1296   1.084       .  S
C1284      C1285   1.411       .  A
C1284      C1287   1.497       .  S
C1285      C1286   1.405       .  A
C1285      H1297   1.080       .  S
C1286      H1298   1.083       .  S
C1287      C1288   1.351       .  D
C1287      H1299   1.085       .  S
C1288      C1289   1.495       .  S
C1288      H1300   1.083       .  S
C1289      C1290   1.404       .  A
C1289      C1294   1.409       .  A
C1290      C1291   1.401       .  A
C1290      H1301   1.083       .  S
C1291      C1292   1.409       .  A
C1291      H1302   1.083       .  S
C1292      C1293   1.407       .  A
C1293      C1294   1.402       .  A
C1293      H1303   1.083       .  S
C1294      H1304   1.081       .  S
C1305      C1306   1.407       .  A
C1305      C1310   1.404       .  A
C1306      C1307   1.394       .  A
C1306      H1319   1.083       .  S
C1307      C1308   1.400       .  A
C1307      H1320   1.084       .  S
C1308      C1309   1.409       .  A
C1308      C1311   1.482       .  S
C1309      C1310   1.400       .  A
C1309      H1321   1.082       .  S
C1310      H1322   1.083       .  S
C1311      C1312   1.345       .  D
C1311      H1323   1.085       .  S
C1312      C1313   1.483       .  S
C1312      H1324   1.086       .  S
C1313      C1314   1.401       .  A
C1313      C1318   1.409       .  A
C1314      C1315   1.395       .  A
C1314      H1325   1.084       .  S
C1315      C1316   1.406       .  A
C1315      H1326   1.083       .  S
C1316      C1317   1.404       .  A
C1317      C1318   1.401       .  A
C1317      H1327   1.083       .  S
C1318      H1328   1.082       .  S
C1329      C1330   1.409       .  A
C1329      C1334   1.407       .  A
C1330      C1331   1.402       .  A
C1330      H1343   1.083       .  S
C1331      C1332   1.403       .  A
C1331      H1344   1.083       .  S
C1332      C1333   1.407       .  A
C1332      C1335   1.491       .  S
C1333      C1334   1.400       .  A
C1333      H1345   1.082       .  S
C1334      H1346   1.083       .  S
C1335      C1336   1.351       .  D
C1335      H1347   1.084       .  S
C1336      C1337   1.494       .  S
C1336      H1348   1.086       .  S
C1337      C1338   1.405       .  A
C1337      C1342   1.409       .  A
C1338      C1339   1.398       .  A
C1338      H1349   1.084       .  S
C1339      C1340   1.405       .  A
C1339      H1350   1.083       .  S
C1340      C1341   1.409       .  A
C1341      C1342   1.404       .  A
C1341      H1351   1.083       .  S
C1342      H1352   1.080       .  S
C1353      C1354   1.406       .  A
C1353      C1358   1.406       .  A
C1354      C1355   1.399       .  A
C1354      H1367   1.083       .  S
C1355      C1356   1.405       .  A
C1355      H1368   1.084       .  S
C1356      C1357   1.409       .  A
C1356      C1359   1.493       .  S
C1357      C1358   1.399       .  A
C1357      H1369   1.079       .  S
C1358      H1370   1.083       .  S
C1359      C1360   1.350       .  D
C1359      H1371   1.085       .  S
C1360      C1361   1.492       .  S
C1360      H1372   1.083       .  S
C1361      C1362   1.406       .  A
C1361      C1366   1.408       .  A
C1362      C1363   1.401       .  A
C1362      H1373   1.084       .  S
C1363      C1364   1.406       .  A
C1363      H1374   1.083       .  S
C1364      C1365   1.407       .  A
C1365      C1366   1.397       .  A
C1365      H1375   1.083       .  S
C1366      H1376   1.080       .  S
C1377      C1378   1.406       .  A
C1377      C1382   1.408       .  A
C1378      C1379   1.397   1_554  A
C1378      H1391   1.083       .  S
C1379      C1380   1.403   1_556  A
C1379      H1392   1.083       .  S
C1380      C1381   1.406       .  A
C1380      C1383   1.484   1_554  S
C1381      C1382   1.400       .  A
C1381      H1393   1.082       .  S
C1382      H1394   1.083       .  S
C1383      C1384   1.350   1_556  D
C1383      H1395   1.083       .  S
C1384      C1385   1.492   1_554  S
C1384      H1396   1.086       .  S
C1385      C1386   1.406       .  A
C1385      C1390   1.408       .  A
C1386      C1387   1.401       .  A
C1386      H1397   1.083   1_556  S
C1387      C1388   1.406       .  A
C1387      H1398   1.083       .  S
C1388      C1389   1.406       .  A
C1389      C1390   1.395       .  A
C1389      H1399   1.083       .  S
C1390      H1400   1.080       .  S
C1401      C1402   1.406       .  A
C1401      C1406   1.407       .  A
C1402      C1403   1.402       .  A
C1402      H1415   1.083       .  S
C1403      C1404   1.404       .  A
C1403      H1416   1.083       .  S
C1404      C1405   1.408       .  A
C1404      C1407   1.493       .  S
C1405      C1406   1.404       .  A
C1405      H1417   1.082       .  S
C1406      H1418   1.083       .  S
C1407      C1408   1.349       .  D
C1407      H1419   1.086       .  S
C1408      C1409   1.493       .  S
C1408      H1420   1.086       .  S
C1409      C1410   1.404       .  A
C1409      C1414   1.408       .  A
C1410      C1411   1.401       .  A
C1410      H1421   1.083       .  S
C1411      C1412   1.407       .  A
C1411      H1422   1.083       .  S
C1412      C1413   1.408       .  A
C1413      C1414   1.405       .  A
C1413      H1423   1.083       .  S
C1414      H1424   1.082       .  S
C1425      C1426   1.408       .  A
C1425      C1430   1.406       .  A
C1426      C1427   1.398       .  A
C1426      H1439   1.083       .  S
C1427      C1428   1.402       .  A
C1427      H1440   1.084       .  S
C1428      C1429   1.408       .  A
C1428      C1431   1.488       .  S
C1429      C1430   1.400       .  A
C1429      H1441   1.081       .  S
C1430      H1442   1.083       .  S
C1431      C1432   1.348       .  D
C1431      H1443   1.086   1_556  S
C1432      C1433   1.486   1_556  S
C1432      H1444   1.085       .  S
C1433      C1434   1.402       .  A
C1433      C1438   1.408       .  A
C1434      C1435   1.398       .  A
C1434      H1445   1.084   1_554  S
C1435      C1436   1.407       .  A
C1435      H1446   1.083       .  S
C1436      C1437   1.406       .  A
C1437      C1438   1.400       .  A
C1437      H1447   1.083       .  S
C1438      H1448   1.082       .  S
C1449      C1450   1.407       .  A
C1449      C1454   1.406       .  A
C1450      C1451   1.395       .  A
C1450      H1463   1.083       .  S
C1451      C1452   1.401       .  A
C1451      H1464   1.084       .  S
C1452      C1453   1.409       .  A
C1452      C1455   1.486       .  S
C1453      C1454   1.401       .  A
C1453      H1465   1.082       .  S
C1454      H1466   1.083       .  S
C1455      C1456   1.347       .  D
C1455      H1467   1.083       .  S
C1456      C1457   1.492       .  S
C1456      H1468   1.085       .  S
C1457      C1458   1.403       .  A
C1457      C1462   1.411       .  A
C1458      C1459   1.396       .  A
C1458      H1469   1.084       .  S
C1459      C1460   1.407       .  A
C1459      H1470   1.083       .  S
C1460      C1461   1.405       .  A
C1461      C1462   1.401       .  A
C1461      H1471   1.083       .  S
C1462      H1472   1.079       .  S
C1473      C1474   1.406       .  A
C1473      C1478   1.407       .  A
C1474      C1475   1.399       .  A
C1474      H1487   1.083       .  S
C1475      C1476   1.406       .  A
C1475      H1488   1.084       .  S
C1476      C1477   1.410       .  A
C1476      C1479   1.496   1_556  S
C1477      C1478   1.402       .  A
C1477      H1489   1.079   1_556  S
C1478      H1490   1.083       .  S
C1479      C1480   1.351       .  D
C1479      H1491   1.086   1_554  S
C1480      C1481   1.491       .  S
C1480      H1492   1.083       .  S
C1481      C1482   1.403       .  A
C1481      C1486   1.407       .  A
C1482      C1483   1.401       .  A
C1482      H1493   1.083       .  S
C1483      C1484   1.408       .  A
C1483      H1494   1.083       .  S
C1484      C1485   1.407       .  A
C1485      C1486   1.400       .  A
C1485      H1495   1.083       .  S
C1486      H1496   1.082       .  S
C1497      C1498   1.406       .  A
C1497      C1502   1.405       .  A
C1498      C1499   1.400       .  A
C1498      H1511   1.083       .  S
C1499      C1500   1.405       .  A
C1499      H1512   1.083       .  S
C1500      C1501   1.410       .  A
C1500      C1503   1.493       .  S
C1501      C1502   1.396       .  A
C1501      H1513   1.079       .  S
C1502      H1514   1.083       .  S
C1503      C1504   1.349       .  D
C1503      H1515   1.085       .  S
C1504      C1505   1.487       .  S
C1504      H1516   1.082       .  S
C1505      C1506   1.403       .  A
C1505      C1510   1.408       .  A
C1506      C1507   1.396       .  A
C1506      H1517   1.083       .  S
C1507      C1508   1.405       .  A
C1507      H1518   1.083       .  S
C1508      C1509   1.407       .  A
C1509      C1510   1.400       .  A
C1509      H1519   1.083       .  S
C1510      H1520   1.081       .  S
C1521      C1522   1.405       .  A
C1521      C1526   1.406       .  A
C1522      C1523   1.397       .  A
C1522      H1535   1.083       .  S
C1523      C1524   1.402       .  A
C1523      H1536   1.083       .  S
C1524      C1525   1.405       .  A
C1524      C1527   1.479       .  S
C1525      C1526   1.398       .  A
C1525      H1537   1.083       .  S
C1526      H1538   1.083       .  S
C1527      C1528   1.345       .  D
C1527      H1539   1.087       .  S
C1528      C1529   1.480       .  S
C1528      H1540   1.087       .  S
C1529      C1530   1.402       .  A
C1529      C1534   1.405       .  A
C1530      C1531   1.399       .  A
C1530      H1541   1.084       .  S
C1531      C1532   1.407       .  A
C1531      H1542   1.083       .  S
C1532      C1533   1.405       .  A
C1533      C1534   1.396       .  A
C1533      H1543   1.083       .  S
C1534      H1544   1.083       .  S
C1545      C1546   1.407       .  A
C1545      C1550   1.407       .  A
C1546      C1547   1.399       .  A
C1546      H1559   1.083       .  S
C1547      C1548   1.404       .  A
C1547      H1560   1.084       .  S
C1548      C1549   1.409       .  A
C1548      C1551   1.493       .  S
C1549      C1550   1.402       .  A
C1549      H1561   1.081       .  S
C1550      H1562   1.083       .  S
C1551      C1552   1.351       .  D
C1551      H1563   1.083       .  S
C1552      C1553   1.495       .  S
C1552      H1564   1.085       .  S
C1553      C1554   1.405       .  A
C1553      C1558   1.410       .  A
C1554      C1555   1.400       .  A
C1554      H1565   1.084       .  S
C1555      C1556   1.407       .  A
C1555      H1566   1.083       .  S
C1556      C1557   1.407       .  A
C1557      C1558   1.401       .  A
C1557      H1567   1.083       .  S
C1558      H1568   1.080       .  S
C1569      C1570   1.405       .  A
C1569      C1574   1.405       .  A
C1570      C1571   1.397       .  A
C1570      H1583   1.083       .  S
C1571      C1572   1.404       .  A
C1571      H1584   1.084       .  S
C1572      C1573   1.409       .  A
C1572      C1575   1.488       .  S
C1573      C1574   1.397       .  A
C1573      H1585   1.080       .  S
C1574      H1586   1.083       .  S
C1575      C1576   1.348       .  D
C1575      H1587   1.082       .  S
C1576      C1577   1.490       .  S
C1576      H1588   1.084       .  S
C1577      C1578   1.405       .  A
C1577      C1582   1.410       .  A
C1578      C1579   1.397       .  A
C1578      H1589   1.084       .  S
C1579      C1580   1.405       .  A
C1579      H1590   1.083       .  S
C1580      C1581   1.404       .  A
C1581      C1582   1.396       .  A
C1581      H1591   1.083       .  S
C1582      H1592   1.078       .  S
C1593      C1594   1.407       .  A
C1593      C1598   1.405       .  A
C1594      C1595   1.400       .  A
C1594      H1607   1.083       .  S
C1595      C1596   1.403       .  A
C1595      H1608   1.083       .  S
C1596      C1597   1.407       .  A
C1596      C1599   1.485       .  S
C1597      C1598   1.396       .  A
C1597      H1609   1.082       .  S
C1598      H1610   1.083       .  S
C1599      C1600   1.348       .  D
C1599      H1611   1.084       .  S
C1600      C1601   1.487       .  S
C1600      H1612   1.086       .  S
C1601      C1602   1.402       .  A
C1601      C1606   1.410       .  A
C1602      C1603   1.393       .  A
C1602      H1613   1.084       .  S
C1603      C1604   1.403       .  A
C1603      H1614   1.083       .  S
C1604      C1605   1.406       .  A
C1605      C1606   1.403       .  A
C1605      H1615   1.083       .  S
C1606      H1616   1.080       .  S
C1617      C1618   1.407       .  A
C1617      C1622   1.407       .  A
C1618      C1619   1.400       .  A
C1618      H1631   1.083       .  S
C1619      C1620   1.404       .  A
C1619      H1632   1.083       .  S
C1620      C1621   1.407       .  A
C1620      C1623   1.489       .  S
C1621      C1622   1.399       .  A
C1621      H1633   1.082       .  S
C1622      H1634   1.083       .  S
C1623      C1624   1.351       .  D
C1623      H1635   1.084       .  S
C1624      C1625   1.492       .  S
C1624      H1636   1.086       .  S
C1625      C1626   1.405       .  A
C1625      C1630   1.408       .  A
C1626      C1627   1.400       .  A
C1626      H1637   1.083       .  S
C1627      C1628   1.406       .  A
C1627      H1638   1.083       .  S
C1628      C1629   1.408       .  A
C1629      C1630   1.400       .  A
C1629      H1639   1.083       .  S
C1630      H1640   1.080       .  S
C1641      C1642   1.405       .  A
C1641      C1646   1.405       .  A
C1642      C1643   1.402       .  A
C1642      H1655   1.083       .  S
C1643      C1644   1.403       .  A
C1643      H1656   1.083       .  S
C1644      C1645   1.401       .  A
C1644      C1647   1.473       .  S
C1645      C1646   1.388       .  A
C1645      H1657   1.084       .  S
C1646      H1658   1.083       .  S
C1647      C1648   1.344       .  D
C1647      H1659   1.086       .  S
C1648      C1649   1.472       .  S
C1648      H1660   1.087       .  S
C1649      C1650   1.403       .  A
C1649      C1654   1.403       .  A
C1650      C1651   1.399       .  A
C1650      H1661   1.083       .  S
C1651      C1652   1.404       .  A
C1651      H1662   1.083       .  S
C1652      C1653   1.404       .  A
C1653      C1654   1.392       .  A
C1653      H1663   1.083       .  S
C1654      H1664   1.083       .  S
C1665      C1666   1.406       .  A
C1665      C1670   1.404       .  A
C1666      C1667   1.394       .  A
C1666      H1679   1.083       .  S
C1667      C1668   1.400       .  A
C1667      H1680   1.084       .  S
C1668      C1669   1.408       .  A
C1668      C1671   1.480       .  S
C1669      C1670   1.398       .  A
C1669      H1681   1.082       .  S
C1670      H1682   1.083       .  S
C1671      C1672   1.345       .  D
C1671      H1683   1.086       .  S
C1672      C1673   1.480       .  S
C1672      H1684   1.086       .  S
C1673      C1674   1.400       .  A
C1673      C1678   1.408       .  A
C1674      C1675   1.394       .  A
C1674      H1685   1.084       .  S
C1675      C1676   1.406       .  A
C1675      H1686   1.083       .  S
C1676      C1677   1.404       .  A
C1677      C1678   1.399       .  A
C1677      H1687   1.083       .  S
C1678      H1688   1.082       .  S
C1689      C1690   1.407       .  A
C1689      C1694   1.406       .  A
C1690      C1691   1.399       .  A
C1690      H1703   1.083       .  S
C1691      C1692   1.402       .  A
C1691      H1704   1.083       .  S
C1692      C1693   1.407       .  A
C1692      C1695   1.487       .  S
C1693      C1694   1.403       .  A
C1693      H1705   1.083       .  S
C1694      H1706   1.083       .  S
C1695      C1696   1.346       .  D
C1695      H1707   1.086       .  S
C1696      C1697   1.488       .  S
C1696      H1708   1.087       .  S
C1697      C1698   1.402       .  A
C1697      C1702   1.407       .  A
C1698      C1699   1.399       .  A
C1698      H1709   1.083       .  S
C1699      C1700   1.407       .  A
C1699      H1710   1.083       .  S
C1700      C1701   1.408       .  A
C1701      C1702   1.403       .  A
C1701      H1711   1.083       .  S
C1702      H1712   1.082       .  S
C1713      C1714   1.406       .  A
C1713      C1718   1.406       .  A
C1714      C1715   1.397       .  A
C1714      H1727   1.083       .  S
C1715      C1716   1.401       .  A
C1715      H1728   1.084       .  S
C1716      C1717   1.408       .  A
C1716      C1719   1.485       .  S
C1717      C1718   1.403       .  A
C1717      H1729   1.082       .  S
C1718      H1730   1.083       .  S
C1719      C1720   1.348       .  D
C1719      H1731   1.084       .  S
C1720      C1721   1.492       .  S
C1720      H1732   1.086       .  S
C1721      C1722   1.404       .  A
C1721      C1726   1.410       .  A
C1722      C1723   1.398       .  A
C1722      H1733   1.083       .  S
C1723      C1724   1.407       .  A
C1723      H1734   1.083       .  S
C1724      C1725   1.406       .  A
C1725      C1726   1.401       .  A
C1725      H1735   1.083       .  S
C1726      H1736   1.081       .  S
C1737      C1738   1.406       .  A
C1737      C1742   1.407       .  A
C1738      C1739   1.398       .  A
C1738      H1751   1.083       .  S
C1739      C1740   1.403       .  A
C1739      H1752   1.083       .  S
C1740      C1741   1.406       .  A
C1740      C1743   1.482       .  S
C1741      C1742   1.396       .  A
C1741      H1753   1.082       .  S
C1742      H1754   1.083       .  S
C1743      C1744   1.348       .  D
C1743      H1755   1.083       .  S
C1744      C1745   1.485       .  S
C1744      H1756   1.085       .  S
C1745      C1746   1.404       .  A
C1745      C1750   1.407       .  A
C1746      C1747   1.398       .  A
C1746      H1757   1.083       .  S
C1747      C1748   1.404       .  A
C1747      H1758   1.083       .  S
C1748      C1749   1.407       .  A
C1749      C1750   1.396       .  A
C1749      H1759   1.083       .  S
C1750      H1760   1.081       .  S
C1761      C1762   1.405       .  A
C1761      C1766   1.407       .  A
C1762      C1763   1.403       .  A
C1762      H1775   1.083       .  S
C1763      C1764   1.404       .  A
C1763      H1776   1.083       .  S
C1764      C1765   1.405       .  A
C1764      C1767   1.488       .  S
C1765      C1766   1.402       .  A
C1765      H1777   1.083       .  S
C1766      H1778   1.083       .  S
C1767      C1768   1.349       .  D
C1767      H1779   1.086       .  S
C1768      C1769   1.489       .  S
C1768      H1780   1.087       .  S
C1769      C1770   1.406       .  A
C1769      C1774   1.405       .  A
C1770      C1771   1.404       .  A
C1770      H1781   1.083       .  S
C1771      C1772   1.405       .  A
C1771      H1782   1.083       .  S
C1772      C1773   1.408       .  A
C1773      C1774   1.401       .  A
C1773      H1783   1.083       .  S
C1774      H1784   1.083       .  S
C1785      C1786   1.405       .  A
C1785      C1790   1.406       .  A
C1786      C1787   1.396       .  A
C1786      H1799   1.083       .  S
C1787      C1788   1.403       .  A
C1787      H1800   1.083       .  S
C1788      C1789   1.408       .  A
C1788      C1791   1.485       .  S
C1789      C1790   1.399       .  A
C1789      H1801   1.082       .  S
C1790      H1802   1.083       .  S
C1791      C1792   1.348       .  D
C1791      H1803   1.084       .  S
C1792      C1793   1.487       .  S
C1792      H1804   1.085       .  S
C1793      C1794   1.404       .  A
C1793      C1798   1.407       .  A
C1794      C1795   1.400       .  A
C1794      H1805   1.083       .  S
C1795      C1796   1.406       .  A
C1795      H1806   1.083       .  S
C1796      C1797   1.406       .  A
C1797      C1798   1.395       .  A
C1797      H1807   1.083       .  S
C1798      H1808   1.081       .  S
C1809      C1810   1.407       .  A
C1809      C1814   1.409       .  A
C1810      C1811   1.400       .  A
C1810      H1823   1.083       .  S
C1811      C1812   1.402       .  A
C1811      H1824   1.083       .  S
C1812      C1813   1.406       .  A
C1812      C1815   1.486       .  S
C1813      C1814   1.404       .  A
C1813      H1825   1.083       .  S
C1814      H1826   1.083       .  S
C1815      C1816   1.347       .  D
C1815      H1827   1.086       .  S
C1816      C1817   1.489       .  S
C1816      H1828   1.087       .  S
C1817      C1818   1.404       .  A
C1817      C1822   1.406       .  A
C1818      C1819   1.402       .  A
C1818      H1829   1.083       .  S
C1819      C1820   1.407       .  A
C1819      H1830   1.083       .  S
C1820      C1821   1.407       .  A
C1821      C1822   1.401       .  A
C1821      H1831   1.083       .  S
C1822      H1832   1.083       .  S
C1833      C1834   1.407       .  A
C1833      C1838   1.409       .  A
C1834      C1835   1.399       .  A
C1834      H1847   1.083       .  S
C1835      C1836   1.405       .  A
C1835      H1848   1.084       .  S
C1836      C1837   1.411       .  A
C1836      C1839   1.498       .  S
C1837      C1838   1.407       .  A
C1837      H1849   1.081       .  S
C1838      H1850   1.083       .  S
C1839      C1840   1.353       .  D
C1839      H1851   1.085       .  S
C1840      C1841   1.497       .  S
C1840      H1852   1.084       .  S
C1841      C1842   1.405       .  A
C1841      C1846   1.409       .  A
C1842      C1843   1.403       .  A
C1842      H1853   1.083       .  S
C1843      C1844   1.408       .  A
C1843      H1854   1.083       .  S
C1844      C1845   1.408       .  A
C1845      C1846   1.402       .  A
C1845      H1855   1.083       .  S
C1846      H1856   1.082       .  S
C1857      C1858   1.405       .  A
C1857      C1862   1.404       .  A
C1858      C1859   1.394       .  A
C1858      H1871   1.083       .  S
C1859      C1860   1.401       .  A
C1859      H1872   1.084       .  S
C1860      C1861   1.408       .  A
C1860      C1863   1.481       .  S
C1861      C1862   1.398       .  A
C1861      H1873   1.082       .  S
C1862      H1874   1.083       .  S
C1863      C1864   1.345       .  D
C1863      H1875   1.085       .  S
C1864      C1865   1.482       .  S
C1864      H1876   1.085       .  S
C1865      C1866   1.401       .  A
C1865      C1870   1.408       .  A
C1866      C1867   1.395       .  A
C1866      H1877   1.084       .  S
C1867      C1868   1.407       .  A
C1867      H1878   1.083       .  S
C1868      C1869   1.405       .  A
C1869      C1870   1.398       .  A
C1869      H1879   1.083       .  S
C1870      H1880   1.081       .  S
C1881      C1882   1.403       .  A
C1881      C1886   1.404       .  A
C1882      C1883   1.401       .  A
C1882      H1895   1.083       .  S
C1883      C1884   1.405       .  A
C1883      H1896   1.083       .  S
C1884      C1885   1.404       .  A
C1884      C1887   1.480       .  S
C1885      C1886   1.392       .  A
C1885      H1897   1.083       .  S
C1886      H1898   1.083       .  S
C1887      C1888   1.346       .  D
C1887      H1899   1.087       .  S
C1888      C1889   1.479       .  S
C1888      H1900   1.086       .  S
C1889      C1890   1.403       .  A
C1889      C1894   1.405       .  A
C1890      C1891   1.400       .  A
C1890      H1901   1.083       .  S
C1891      C1892   1.404       .  A
C1891      H1902   1.083       .  S
C1892      C1893   1.404       .  A
C1893      C1894   1.395       .  A
C1893      H1903   1.083       .  S
C1894      H1904   1.083       .  S
C1905      C1906   1.405   1_655  A
C1905      C1910   1.402       .  A
C1906      C1907   1.398       .  A
C1906      H1919   1.083       .  S
C1907      C1908   1.404   1_455  A
C1907      H1920   1.084       .  S
C1908      C1909   1.410       .  A
C1908      C1911   1.490   1_655  S
C1909      C1910   1.398       .  A
C1909      H1921   1.080       .  S
C1910      H1922   1.083       .  S
C1911      C1912   1.348   1_455  D
C1911      H1923   1.086       .  S
C1912      C1913   1.483       .  S
C1912      H1924   1.083       .  S
C1913      C1914   1.401       .  A
C1913      C1918   1.408   1_655  A
C1914      C1915   1.395       .  A
C1914      H1925   1.083       .  S
C1915      C1916   1.406   1_655  A
C1915      H1926   1.083       .  S
C1916      C1917   1.405       .  A
C1917      C1918   1.401       .  A
C1917      H1927   1.083       .  S
C1918      H1928   1.082       .  S
C1929      C1930   1.409       .  A
C1929      C1934   1.405       .  A
C1930      C1931   1.398       .  A
C1930      H1943   1.083       .  S
C1931      C1932   1.403       .  A
C1931      H1944   1.084       .  S
C1932      C1933   1.410       .  A
C1932      C1935   1.493       .  S
C1933      C1934   1.401       .  A
C1933      H1945   1.080       .  S
C1934      H1946   1.083       .  S
C1935      C1936   1.349       .  D
C1935      H1947   1.085       .  S
C1936      C1937   1.492       .  S
C1936      H1948   1.084       .  S
C1937      C1938   1.403       .  A
C1937      C1942   1.410       .  A
C1938      C1939   1.397       .  A
C1938      H1949   1.084       .  S
C1939      C1940   1.406       .  A
C1939      H1950   1.083       .  S
C1940      C1941   1.406       .  A
C1941      C1942   1.403       .  A
C1941      H1951   1.083       .  S
C1942      H1952   1.080       .  S
C1953      C1954   1.404       .  A
C1953      C1958   1.405       .  A
C1954      C1955   1.393       .  A
C1954      H1967   1.083       .  S
C1955      C1956   1.402       .  A
C1955      H1968   1.084       .  S
C1956      C1957   1.407       .  A
C1956      C1959   1.480       .  S
C1957      C1958   1.399       .  A
C1957      H1969   1.081       .  S
C1958      H1970   1.083       .  S
C1959      C1960   1.346       .  D
C1959      H1971   1.086       .  S
C1960      C1961   1.480       .  S
C1960      H1972   1.085       .  S
C1961      C1962   1.405       .  A
C1961      C1966   1.402       .  A
C1962      C1963   1.392       .  A
C1962      H1973   1.082       .  S
C1963      C1964   1.405       .  A
C1963      H1974   1.083       .  S
C1964      C1965   1.406       .  A
C1965      C1966   1.399       .  A
C1965      H1975   1.083       .  S
C1966      H1976   1.083       .  S
C1977      C1978   1.406       .  A
C1977      C1982   1.405       .  A
C1978      C1979   1.395       .  A
C1978      H1991   1.083       .  S
C1979      C1980   1.401       .  A
C1979      H1992   1.083       .  S
C1980      C1981   1.409       .  A
C1980      C1983   1.484       .  S
C1981      C1982   1.400       .  A
C1981      H1993   1.082   1_556  S
C1982      H1994   1.083       .  S
C1983      C1984   1.347   1_556  D
C1983      H1995   1.085       .  S
C1984      C1985   1.486       .  S
C1984      H1996   1.086       .  S
C1985      C1986   1.402       .  A
C1985      C1990   1.409       .  A
C1986      C1987   1.397       .  A
C1986      H1997   1.083       .  S
C1987      C1988   1.405       .  A
C1987      H1998   1.083       .  S
C1988      C1989   1.404       .  A
C1989      C1990   1.399       .  A
C1989      H1999   1.083       .  S
C1990      H2000   1.081   1_554  S
C2001      C2002   1.408       .  A
C2001      C2006   1.408       .  A
C2002      C2003   1.400       .  A
C2002      H2015   1.083       .  S
C2003      C2004   1.404       .  A
C2003      H2016   1.083       .  S
C2004      C2005   1.410       .  A
C2004      C2007   1.498       .  S
C2005      C2006   1.406       .  A
C2005      H2017   1.081       .  S
C2006      H2018   1.083       .  S
C2007      C2008   1.352       .  D
C2007      H2019   1.085       .  S
C2008      C2009   1.499       .  S
C2008      H2020   1.085       .  S
C2009      C2010   1.405       .  A
C2009      C2014   1.410       .  A
C2010      C2011   1.402       .  A
C2010      H2021   1.083       .  S
C2011      C2012   1.407       .  A
C2011      H2022   1.083       .  S
C2012      C2013   1.409       .  A
C2013      C2014   1.405       .  A
C2013      H2023   1.083       .  S
C2014      H2024   1.081       .  S
C2025      C2026   1.408       .  A
C2025      C2030   1.406       .  A
C2026      C2027   1.396   1_556  A
C2026      H2039   1.083       .  S
C2027      C2028   1.401   1_554  A
C2027      H2040   1.084       .  S
C2028      C2029   1.409       .  A
C2028      C2031   1.486   1_556  S
C2029      C2030   1.403       .  A
C2029      H2041   1.082       .  S
C2030      H2042   1.083       .  S
C2031      C2032   1.348       .  D
C2031      H2043   1.083       .  S
C2032      C2033   1.492       .  S
C2032      H2044   1.086       .  S
C2033      C2034   1.403       .  A
C2033      C2038   1.411       .  A
C2034      C2035   1.397       .  A
C2034      H2045   1.083       .  S
C2035      C2036   1.407       .  A
C2035      H2046   1.083       .  S
C2036      C2037   1.406       .  A
C2037      C2038   1.402       .  A
C2037      H2047   1.083       .  S
C2038      H2048   1.080       .  S
C2049      C2050   1.404       .  A
C2049      C2054   1.403       .  A
C2050      C2051   1.399       .  A
C2050      H2063   1.083       .  S
C2051      C2052   1.403       .  A
C2051      H2064   1.083       .  S
C2052      C2053   1.404       .  A
C2052      C2055   1.477       .  S
C2053      C2054   1.394       .  A
C2053      H2065   1.083       .  S
C2054      H2066   1.083       .  S
C2055      C2056   1.345       .  D
C2055      H2067   1.086       .  S
C2056      C2057   1.479       .  S
C2056      H2068   1.087       .  S
C2057      C2058   1.405       .  A
C2057      C2062   1.404       .  A
C2058      C2059   1.401       .  A
C2058      H2069   1.083       .  S
C2059      C2060   1.403       .  A
C2059      H2070   1.083       .  S
C2060      C2061   1.404       .  A
C2061      C2062   1.393       .  A
C2061      H2071   1.083       .  S
C2062      H2072   1.083       .  S
C2073      C2074   1.407   1_545  A
C2073      C2078   1.407       .  A
C2074      C2075   1.398       .  A
C2074      H2087   1.083       .  S
C2075      C2076   1.405       .  A
C2075      H2088   1.084       .  S
C2076      C2077   1.411       .  A
C2076      C2079   1.497       .  S
C2077      C2078   1.405   1_565  A
C2077      H2089   1.079       .  S
C2078      H2090   1.083       .  S
C2079      C2080   1.351       .  D
C2079      H2091   1.086       .  S
C2080      C2081   1.492       .  S
C2080      H2092   1.083       .  S
C2081      C2082   1.403       .  A
C2081      C2086   1.408       .  A
C2082      C2083   1.400       .  A
C2082      H2093   1.083       .  S
C2083      C2084   1.408       .  A
C2083      H2094   1.083       .  S
C2084      C2085   1.407       .  A
C2085      C2086   1.401       .  A
C2085      H2095   1.083       .  S
C2086      H2096   1.082       .  S
C2097      C2098   1.405       .  A
C2097      C2102   1.404       .  A
C2098      C2099   1.399       .  A
C2098      H2111   1.083   1_655  S
C2099      C2100   1.409       .  A
C2099      H2112   1.080       .  S
C2100      C2101   1.405       .  A
C2100      C2103   1.491       .  S
C2101      C2102   1.398       .  A
C2101      H2113   1.083       .  S
C2102      H2114   1.083       .  S
C2103      C2104   1.350       .  D
C2103      H2115   1.086       .  S
C2104      C2105   1.487       .  S
C2104      H2116   1.084       .  S
C2105      C2106   1.404       .  A
C2105      C2110   1.406       .  A
C2106      C2107   1.400       .  A
C2106      H2117   1.083       .  S
C2107      C2108   1.406       .  A
C2107      H2118   1.083       .  S
C2108      C2109   1.407       .  A
C2109      C2110   1.398       .  A
C2109      H2119   1.083       .  S
C2110      H2120   1.082       .  S
C2121      C2122   1.406       .  A
C2121      C2126   1.406       .  A
C2122      C2123   1.398       .  A
C2122      H2135   1.083       .  S
C2123      C2124   1.404       .  A
C2123      H2136   1.083       .  S
C2124      C2125   1.409       .  A
C2124      C2127   1.489       .  S
C2125      C2126   1.399       .  A
C2125      H2137   1.081       .  S
C2126      H2138   1.083       .  S
C2127      C2128   1.349       .  D
C2127      H2139   1.083       .  S
C2128      C2129   1.492       .  S
C2128      H2140   1.085       .  S
C2129      C2130   1.404       .  A
C2129      C2134   1.410       .  A
C2130      C2131   1.398       .  A
C2130      H2141   1.084       .  S
C2131      C2132   1.406       .  A
C2131      H2142   1.083       .  S
C2132      C2133   1.407       .  A
C2133      C2134   1.400       .  A
C2133      H2143   1.083       .  S
C2134      H2144   1.080       .  S
C2145      C2146   1.406       .  A
C2145      C2150   1.407       .  A
C2146      C2147   1.402       .  A
C2146      H2159   1.083       .  S
C2147      C2148   1.403       .  A
C2147      H2160   1.083       .  S
C2148      C2149   1.400       .  A
C2148      C2151   1.473       .  S
C2149      C2150   1.390       .  A
C2149      H2161   1.083       .  S
C2150      H2162   1.083       .  S
C2151      C2152   1.344       .  D
C2151      H2163   1.087       .  S
C2152      C2153   1.471       .  S
C2152      H2164   1.087       .  S
C2153      C2154   1.402       .  A
C2153      C2158   1.401       .  A
C2154      C2155   1.401       .  A
C2154      H2165   1.083       .  S
C2155      C2156   1.405       .  A
C2155      H2166   1.083       .  S
C2156      C2157   1.405       .  A
C2157      C2158   1.391       .  A
C2157      H2167   1.083       .  S
C2158      H2168   1.084       .  S
C2169      C2170   1.406       .  A
C2169      C2174   1.406       .  A
C2170      C2171   1.398       .  A
C2170      H2183   1.083       .  S
C2171      C2172   1.402       .  A
C2171      H2184   1.083       .  S
C2172      C2173   1.408       .  A
C2172      C2175   1.488       .  S
C2173      C2174   1.404       .  A
C2173      H2185   1.082       .  S
C2174      H2186   1.083       .  S
C2175      C2176   1.347       .  D
C2175      H2187   1.086       .  S
C2176      C2177   1.489       .  S
C2176      H2188   1.087       .  S
C2177      C2178   1.403       .  A
C2177      C2182   1.409       .  A
C2178      C2179   1.399       .  A
C2178      H2189   1.084       .  S
C2179      C2180   1.406       .  A
C2179      H2190   1.083       .  S
C2180      C2181   1.406       .  A
C2181      C2182   1.403       .  A
C2181      H2191   1.083       .  S
C2182      H2192   1.082       .  S
C2193      C2194   1.405   1_545  A
C2193      C2198   1.409       .  A
C2194      C2195   1.399       .  A
C2194      H2207   1.083       .  S
C2195      C2196   1.406       .  A
C2195      H2208   1.083       .  S
C2196      C2197   1.410       .  A
C2196      C2199   1.497       .  S
C2197      C2198   1.405   1_565  A
C2197      H2209   1.080       .  S
C2198      H2210   1.083       .  S
C2199      C2200   1.353       .  D
C2199      H2211   1.085       .  S
C2200      C2201   1.496       .  S
C2200      H2212   1.083       .  S
C2201      C2202   1.406       .  A
C2201      C2206   1.407       .  A
C2202      C2203   1.405       .  A
C2202      H2213   1.083       .  S
C2203      C2204   1.409       .  A
C2203      H2214   1.083       .  S
C2204      C2205   1.407       .  A
C2205      C2206   1.399       .  A
C2205      H2215   1.083       .  S
C2206      H2216   1.082       .  S
C2217      C2218   1.408       .  A
C2217      C2222   1.407       .  A
C2218      C2219   1.397       .  A
C2218      H2231   1.083       .  S
C2219      C2220   1.400       .  A
C2219      H2232   1.083       .  S
C2220      C2221   1.407       .  A
C2220      C2223   1.485       .  S
C2221      C2222   1.405       .  A
C2221      H2233   1.083       .  S
C2222      H2234   1.082       .  S
C2223      C2224   1.344       .  D
C2223      H2235   1.087       .  S
C2224      C2225   1.483       .  S
C2224      H2236   1.086       .  S
C2225      C2226   1.402       .  A
C2225      C2230   1.407       .  A
C2226      C2227   1.399       .  A
C2226      H2237   1.083       .  S
C2227      C2228   1.405       .  A
C2227      H2238   1.083       .  S
C2228      C2229   1.404       .  A
C2229      C2230   1.402       .  A
C2229      H2239   1.083       .  S
C2230      H2240   1.083       .  S
C2241      C2242   1.408       .  A
C2241      C2246   1.406       .  A
C2242      C2243   1.396       .  A
C2242      H2255   1.083       .  S
C2243      C2244   1.401       .  A
C2243      H2256   1.084       .  S
C2244      C2245   1.409       .  A
C2244      C2247   1.488       .  S
C2245      C2246   1.401       .  A
C2245      H2257   1.082       .  S
C2246      H2258   1.083       .  S
C2247      C2248   1.347       .  D
C2247      H2259   1.083       .  S
C2248      C2249   1.491       .  S
C2248      H2260   1.085       .  S
C2249      C2250   1.403       .  A
C2249      C2254   1.411       .  A
C2250      C2251   1.395       .  A
C2250      H2261   1.084       .  S
C2251      C2252   1.406       .  A
C2251      H2262   1.083       .  S
C2252      C2253   1.405       .  A
C2253      C2254   1.402       .  A
C2253      H2263   1.083       .  S
C2254      H2264   1.079       .  S
C2265      C2266   1.404       .  A
C2265      C2270   1.405       .  A
C2266      C2267   1.396       .  A
C2266      H2279   1.083       .  S
C2267      C2268   1.404       .  A
C2267      H2280   1.083       .  S
C2268      C2269   1.409       .  A
C2268      C2271   1.488       .  S
C2269      C2270   1.401       .  A
C2269      H2281   1.080       .  S
C2270      H2282   1.083       .  S
C2271      C2272   1.349       .  D
C2271      H2283   1.086       .  S
C2272      C2273   1.486       .  S
C2272      H2284   1.084       .  S
C2273      C2274   1.404       .  A
C2273      C2278   1.406       .  A
C2274      C2275   1.401       .  A
C2274      H2285   1.083       .  S
C2275      C2276   1.406       .  A
C2275      H2286   1.083       .  S
C2276      C2277   1.407       .  A
C2277      C2278   1.396       .  A
C2277      H2287   1.083       .  S
C2278      H2288   1.082       .  S
C2289      C2290   1.408       .  A
C2289      C2294   1.406       .  A
C2290      C2291   1.398       .  A
C2290      H2303   1.083       .  S
C2291      C2292   1.403       .  A
C2291      H2304   1.084       .  S
C2292      C2293   1.410       .  A
C2292      C2295   1.492       .  S
C2293      C2294   1.403       .  A
C2293      H2305   1.080   1_556  S
C2294      H2306   1.083       .  S
C2295      C2296   1.350   1_556  D
C2295      H2307   1.086       .  S
C2296      C2297   1.490       .  S
C2296      H2308   1.084       .  S
C2297      C2298   1.404       .  A
C2297      C2302   1.407       .  A
C2298      C2299   1.400       .  A
C2298      H2309   1.083       .  S
C2299      C2300   1.406       .  A
C2299      H2310   1.083       .  S
C2300      C2301   1.407       .  A
C2301      C2302   1.399       .  A
C2301      H2311   1.083       .  S
C2302      H2312   1.082       .  S
C2313      C2314   1.405       .  A
C2313      C2318   1.404       .  A
C2314      C2315   1.396       .  A
C2314      H2327   1.083       .  S
C2315      C2316   1.402       .  A
C2315      H2328   1.084       .  S
C2316      C2317   1.406       .  A
C2316      C2319   1.478       .  S
C2317      C2318   1.394       .  A
C2317      H2329   1.082       .  S
C2318      H2330   1.083       .  S
C2319      C2320   1.346       .  D
C2319      H2331   1.085       .  S
C2320      C2321   1.479       .  S
C2320      H2332   1.087       .  S
C2321      C2322   1.403       .  A
C2321      C2326   1.407       .  A
C2322      C2323   1.396       .  A
C2322      H2333   1.084       .  S
C2323      C2324   1.405       .  A
C2323      H2334   1.083       .  S
C2324      C2325   1.405       .  A
C2325      C2326   1.394       .  A
C2325      H2335   1.083       .  S
C2326      H2336   1.081       .  S
C2337      C2338   1.408       .  A
C2337      C2342   1.407       .  A
C2338      C2339   1.398       .  A
C2338      H2351   1.083       .  S
C2339      C2340   1.402       .  A
C2339      H2352   1.083       .  S
C2340      C2341   1.407       .  A
C2340      C2343   1.486       .  S
C2341      C2342   1.401       .  A
C2341      H2353   1.082       .  S
C2342      H2354   1.083       .  S
C2343      C2344   1.350   1_556  D
C2343      H2355   1.083       .  S
C2344      C2345   1.493       .  S
C2344      H2356   1.086       .  S
C2345      C2346   1.405       .  A
C2345      C2350   1.408       .  A
C2346      C2347   1.401       .  A
C2346      H2357   1.083       .  S
C2347      C2348   1.405       .  A
C2347      H2358   1.083       .  S
C2348      C2349   1.408       .  A
C2349      C2350   1.399       .  A
C2349      H2359   1.083   1_545  S
C2350      H2360   1.080   1_554  S
C2361      C2362   1.405       .  A
C2361      C2366   1.407       .  A
C2362      C2363   1.401       .  A
C2362      H2375   1.083       .  S
C2363      C2364   1.403       .  A
C2363      H2376   1.083       .  S
C2364      C2365   1.402       .  A
C2364      C2367   1.475       .  S
C2365      C2366   1.392       .  A
C2365      H2377   1.083       .  S
C2366      H2378   1.083       .  S
C2367      C2368   1.344       .  D
C2367      H2379   1.087       .  S
C2368      C2369   1.475       .  S
C2368      H2380   1.087       .  S
C2369      C2370   1.403       .  A
C2369      C2374   1.403       .  A
C2370      C2371   1.400       .  A
C2370      H2381   1.083       .  S
C2371      C2372   1.403       .  A
C2371      H2382   1.083       .  S
C2372      C2373   1.404       .  A
C2373      C2374   1.393       .  A
C2373      H2383   1.083       .  S
C2374      H2384   1.083       .  S
C2385      C2386   1.405       .  A
C2385      C2390   1.402       .  A
C2386      C2387   1.397       .  A
C2386      H2399   1.083       .  S
C2387      C2388   1.402       .  A
C2387      H2400   1.083       .  S
C2388      C2389   1.408       .  A
C2388      C2391   1.482       .  S
C2389      C2390   1.396       .  A
C2389      H2401   1.082       .  S
C2390      H2402   1.083       .  S
C2391      C2392   1.346   1_565  D
C2391      H2403   1.086       .  S
C2392      C2393   1.478       .  S
C2392      H2404   1.085       .  S
C2393      C2394   1.402       .  A
C2393      C2398   1.407       .  A
C2394      C2395   1.395       .  A
C2394      H2405   1.083       .  S
C2395      C2396   1.403       .  A
C2395      H2406   1.083       .  S
C2396      C2397   1.404       .  A
C2397      C2398   1.399       .  A
C2397      H2407   1.083       .  S
C2398      H2408   1.082       .  S
C2409      C2410   1.406       .  A
C2409      C2414   1.408       .  A
C2410      C2411   1.400       .  A
C2410      H2423   1.083       .  S
C2411      C2412   1.404       .  A
C2411      H2424   1.083       .  S
C2412      C2413   1.408       .  A
C2412      C2415   1.490       .  S
C2413      C2414   1.402       .  A
C2413      H2425   1.082       .  S
C2414      H2426   1.083       .  S
C2415      C2416   1.348       .  D
C2415      H2427   1.086       .  S
C2416      C2417   1.489       .  S
C2416      H2428   1.086       .  S
C2417      C2418   1.403       .  A
C2417      C2422   1.409       .  A
C2418      C2419   1.399       .  A
C2418      H2429   1.083       .  S
C2419      C2420   1.406       .  A
C2419      H2430   1.083       .  S
C2420      C2421   1.405       .  A
C2421      C2422   1.403       .  A
C2421      H2431   1.083       .  S
C2422      H2432   1.082       .  S
C2433      C2434   1.406       .  A
C2433      C2438   1.407       .  A
C2434      C2435   1.401       .  A
C2434      H2447   1.083       .  S
C2435      C2436   1.406       .  A
C2435      H2448   1.083       .  S
C2436      C2437   1.411       .  A
C2436      C2439   1.500       .  S
C2437      C2438   1.403       .  A
C2437      H2449   1.079       .  S
C2438      H2450   1.083       .  S
C2439      C2440   1.352       .  D
C2439      H2451   1.085       .  S
C2440      C2441   1.496       .  S
C2440      H2452   1.082       .  S
C2441      C2442   1.405       .  A
C2441      C2446   1.409       .  A
C2442      C2443   1.400       .  A
C2442      H2453   1.083       .  S
C2443      C2444   1.407       .  A
C2443      H2454   1.083       .  S
C2444      C2445   1.408       .  A
C2445      C2446   1.404       .  A
C2445      H2455   1.083       .  S
C2446      H2456   1.081       .  S
C2457      C2458   1.405       .  A
C2457      C2462   1.406       .  A
C2458      C2459   1.399       .  A
C2458      H2471   1.083       .  S
C2459      C2460   1.406       .  A
C2459      H2472   1.083       .  S
C2460      C2461   1.408       .  A
C2460      C2463   1.490       .  S
C2461      C2462   1.397       .  A
C2461      H2473   1.080       .  S
C2462      H2474   1.083       .  S
C2463      C2464   1.350       .  D
C2463      H2475   1.082       .  S
C2464      C2465   1.493       .  S
C2464      H2476   1.083       .  S
C2465      C2466   1.406       .  A
C2465      C2470   1.409       .  A
C2466      C2467   1.399       .  A
C2466      H2477   1.083       .  S
C2467      C2468   1.405       .  A
C2467      H2478   1.083       .  S
C2468      C2469   1.405       .  A
C2469      C2470   1.397       .  A
C2469      H2479   1.083       .  S
C2470      H2480   1.079       .  S
C2481      C2482   1.406       .  A
C2481      C2486   1.408       .  A
C2482      C2483   1.398       .  A
C2482      H2495   1.083       .  S
C2483      C2484   1.404       .  A
C2483      H2496   1.083       .  S
C2484      C2485   1.409       .  A
C2484      C2487   1.493       .  S
C2485      C2486   1.403       .  A
C2485      H2497   1.081       .  S
C2486      H2498   1.083       .  S
C2487      C2488   1.350       .  D
C2487      H2499   1.086       .  S
C2488      C2489   1.491       .  S
C2488      H2500   1.084       .  S
C2489      C2490   1.403   1_545  A
C2489      C2494   1.409       .  A
C2490      C2491   1.400       .  A
C2490      H2501   1.084       .  S
C2491      C2492   1.408       .  A
C2491      H2502   1.083       .  S
C2492      C2493   1.405   1_565  A
C2493      C2494   1.401       .  A
C2493      H2503   1.083       .  S
C2494      H2504   1.081       .  S
C2505      C2506   1.404       .  A
C2505      C2510   1.404       .  A
C2506      C2507   1.395       .  A
C2506      H2519   1.083       .  S
C2507      C2508   1.403       .  A
C2507      H2520   1.084       .  S
C2508      C2509   1.408       .  A
C2508      C2511   1.484       .  S
C2509      C2510   1.400       .  A
C2509      H2521   1.081       .  S
C2510      H2522   1.083       .  S
C2511      C2512   1.348       .  D
C2511      H2523   1.086       .  S
C2512      C2513   1.483       .  S
C2512      H2524   1.084       .  S
C2513      C2514   1.405       .  A
C2513      C2518   1.403       .  A
C2514      C2515   1.394       .  A
C2514      H2525   1.083       .  S
C2515      C2516   1.407       .  A
C2515      H2526   1.083       .  S
C2516      C2517   1.407       .  A
C2517      C2518   1.401       .  A
C2517      H2527   1.083       .  S
C2518      H2528   1.083       .  S
C2529      C2530   1.406       .  A
C2529      C2534   1.406       .  A
C2530      C2531   1.404       .  A
C2530      H2543   1.083       .  S
C2531      C2532   1.405       .  A
C2531      H2544   1.083       .  S
C2532      C2533   1.405       .  A
C2532      C2535   1.488       .  S
C2533      C2534   1.399       .  A
C2533      H2545   1.083       .  S
C2534      H2546   1.083       .  S
C2535      C2536   1.348       .  D
C2535      H2547   1.086       .  S
C2536      C2537   1.486       .  S
C2536      H2548   1.087       .  S
C2537      C2538   1.404       .  A
C2537      C2542   1.406       .  A
C2538      C2539   1.401   1_565  A
C2538      H2549   1.083       .  S
C2539      C2540   1.406       .  A
C2539      H2550   1.083       .  S
C2540      C2541   1.407       .  A
C2541      C2542   1.403   1_545  A
C2541      H2551   1.083       .  S
C2542      H2552   1.083       .  S
C2553      C2554   1.406       .  A
C2553      C2558   1.408       .  A
C2554      C2555   1.400       .  A
C2554      H2567   1.083       .  S
C2555      C2556   1.405       .  A
C2555      H2568   1.084       .  S
C2556      C2557   1.410       .  A
C2556      C2559   1.496       .  S
C2557      C2558   1.404       .  A
C2557      H2569   1.080       .  S
C2558      H2570   1.083       .  S
C2559      C2560   1.353       .  D
C2559      H2571   1.084       .  S
C2560      C2561   1.496       .  S
C2560      H2572   1.084       .  S
C2561      C2562   1.406       .  A
C2561      C2566   1.409       .  A
C2562      C2563   1.402       .  A
C2562      H2573   1.083       .  S
C2563      C2564   1.407       .  A
C2563      H2574   1.083       .  S
C2564      C2565   1.407       .  A
C2565      C2566   1.400       .  A
C2565      H2575   1.083       .  S
C2566      H2576   1.081       .  S
C2577      C2578   1.405       .  A
C2577      C2582   1.404       .  A
C2578      C2579   1.398       .  A
C2578      H2591   1.083       .  S
C2579      C2580   1.405       .  A
C2579      H2592   1.084       .  S
C2580      C2581   1.409       .  A
C2580      C2583   1.489       .  S
C2581      C2582   1.395       .  A
C2581      H2593   1.079       .  S
C2582      H2594   1.083       .  S
C2583      C2584   1.349       .  D
C2583      H2595   1.083       .  S
C2584      C2585   1.489       .  S
C2584      H2596   1.083       .  S
C2585      C2586   1.406       .  A
C2585      C2590   1.409       .  A
C2586      C2587   1.398       .  A
C2586      H2597   1.083       .  S
C2587      C2588   1.404       .  A
C2587      H2598   1.083       .  S
C2588      C2589   1.406       .  A
C2589      C2590   1.396       .  A
C2589      H2599   1.083       .  S
C2590      H2600   1.079       .  S
C2601      C2602   1.402       .  A
C2601      C2606   1.406       .  A
C2602      C2603   1.394       .  A
C2602      H2615   1.083       .  S
C2603      C2604   1.403       .  A
C2603      H2616   1.084       .  S
C2604      C2605   1.409       .  A
C2604      C2607   1.486       .  S
C2605      C2606   1.402       .  A
C2605      H2617   1.081       .  S
C2606      H2618   1.083       .  S
C2607      C2608   1.348       .  D
C2607      H2619   1.086       .  S
C2608      C2609   1.487       .  S
C2608      H2620   1.084       .  S
C2609      C2610   1.407       .  A
C2609      C2614   1.404       .  A
C2610      C2611   1.395       .  A
C2610      H2621   1.082       .  S
C2611      C2612   1.406       .  A
C2611      H2622   1.083       .  S
C2612      C2613   1.408       .  A
C2613      C2614   1.402       .  A
C2613      H2623   1.083       .  S
C2614      H2624   1.083       .  S
C2625      C2626   1.406       .  A
C2625      C2630   1.408       .  A
C2626      C2627   1.401   1_556  A
C2626      H2639   1.083       .  S
C2627      C2628   1.405   1_554  A
C2627      H2640   1.083       .  S
C2628      C2629   1.406       .  A
C2628      C2631   1.489   1_556  S
C2629      C2630   1.399       .  A
C2629      H2641   1.082       .  S
C2630      H2642   1.083       .  S
C2631      C2632   1.351   1_544  D
C2631      H2643   1.084       .  S
C2632      C2633   1.490   1_556  S
C2632      H2644   1.085       .  S
C2633      C2634   1.404       .  A
C2633      C2638   1.408       .  A
C2634      C2635   1.400       .  A
C2634      H2645   1.083   1_554  S
C2635      C2636   1.407       .  A
C2635      H2646   1.083       .  S
C2636      C2637   1.406       .  A
C2637      C2638   1.399       .  A
C2637      H2647   1.083       .  S
C2638      H2648   1.081       .  S
C2649      C2650   1.406       .  A
C2649      C2654   1.407       .  A
C2650      C2651   1.401       .  A
C2650      H2663   1.083       .  S
C2651      C2652   1.404       .  A
C2651      H2664   1.083       .  S
C2652      C2653   1.407       .  A
C2652      C2655   1.490       .  S
C2653      C2654   1.403       .  A
C2653      H2665   1.082       .  S
C2654      H2666   1.083       .  S
C2655      C2656   1.348       .  D
C2655      H2667   1.086       .  S
C2656      C2657   1.490       .  S
C2656      H2668   1.086       .  S
C2657      C2658   1.404       .  A
C2657      C2662   1.407       .  A
C2658      C2659   1.401       .  A
C2658      H2669   1.083       .  S
C2659      C2660   1.405       .  A
C2659      H2670   1.083       .  S
C2660      C2661   1.407       .  A
C2661      C2662   1.402       .  A
C2661      H2671   1.083       .  S
C2662      H2672   1.082       .  S
C2673      C2674   1.406   1_545  A
C2673      C2678   1.407       .  A
C2674      C2675   1.400       .  A
C2674      H2687   1.083       .  S
C2675      C2676   1.406       .  A
C2675      H2688   1.084       .  S
C2676      C2677   1.411       .  A
C2676      C2679   1.497       .  S
C2677      C2678   1.403   1_565  A
C2677      H2689   1.079   1_556  S
C2678      H2690   1.083       .  S
C2679      C2680   1.351   1_556  D
C2679      H2691   1.085       .  S
C2680      C2681   1.493       .  S
C2680      H2692   1.083       .  S
C2681      C2682   1.404       .  A
C2681      C2686   1.409       .  A
C2682      C2683   1.400       .  A
C2682      H2693   1.084       .  S
C2683      C2684   1.407       .  A
C2683      H2694   1.083       .  S
C2684      C2685   1.407       .  A
C2685      C2686   1.401       .  A
C2685      H2695   1.083       .  S
C2686      H2696   1.081       .  S
C2697      C2698   1.406       .  A
C2697      C2702   1.406       .  A
C2698      C2699   1.402       .  A
C2698      H2711   1.083       .  S
C2699      C2700   1.407       .  A
C2699      H2712   1.083       .  S
C2700      C2701   1.409       .  A
C2700      C2703   1.497       .  S
C2701      C2702   1.398       .  A
C2701      H2713   1.078   1_554  S
C2702      H2714   1.083       .  S
C2703      C2704   1.351   1_554  D
C2703      H2715   1.086       .  S
C2704      C2705   1.488       .  S
C2704      H2716   1.082       .  S
C2705      C2706   1.403       .  A
C2705      C2710   1.408       .  A
C2706      C2707   1.397       .  A
C2706      H2717   1.084       .  S
C2707      C2708   1.406       .  A
C2707      H2718   1.083       .  S
C2708      C2709   1.407       .  A
C2709      C2710   1.401       .  A
C2709      H2719   1.083       .  S
C2710      H2720   1.082       .  S
C2721      C2722   1.407       .  A
C2721      C2726   1.406       .  A
C2722      C2723   1.395       .  A
C2722      H2735   1.083       .  S
C2723      C2724   1.401       .  A
C2723      H2736   1.084       .  S
C2724      C2725   1.409       .  A
C2724      C2727   1.487       .  S
C2725      C2726   1.401       .  A
C2725      H2737   1.081       .  S
C2726      H2738   1.083       .  S
C2727      C2728   1.346       .  D
C2727      H2739   1.084       .  S
C2728      C2729   1.488       .  S
C2728      H2740   1.085       .  S
C2729      C2730   1.402       .  A
C2729      C2734   1.410       .  A
C2730      C2731   1.396       .  A
C2730      H2741   1.084       .  S
C2731      C2732   1.406       .  A
C2731      H2742   1.083       .  S
C2732      C2733   1.405       .  A
C2733      C2734   1.400       .  A
C2733      H2743   1.083       .  S
C2734      H2744   1.080       .  S
C2745      C2746   1.404       .  A
C2745      C2750   1.405       .  A
C2746      C2747   1.404       .  A
C2746      H2759   1.083       .  S
C2747      C2748   1.406       .  A
C2747      H2760   1.083       .  S
C2748      C2749   1.402       .  A
C2748      C2751   1.479       .  S
C2749      C2750   1.391       .  A
C2749      H2761   1.083       .  S
C2750      H2762   1.083       .  S
C2751      C2752   1.346       .  D
C2751      H2763   1.086       .  S
C2752      C2753   1.478       .  S
C2752      H2764   1.087       .  S
C2753      C2754   1.404       .  A
C2753      C2758   1.403       .  A
C2754      C2755   1.401       .  A
C2754      H2765   1.083       .  S
C2755      C2756   1.404       .  A
C2755      H2766   1.083       .  S
C2756      C2757   1.406       .  A
C2757      C2758   1.395       .  A
C2757      H2767   1.083       .  S
C2758      H2768   1.083       .  S
C2769      C2770   1.407       .  A
C2769      C2774   1.404       .  A
C2770      C2771   1.398       .  A
C2770      H2783   1.083       .  S
C2771      C2772   1.402       .  A
C2771      H2784   1.083       .  S
C2772      C2773   1.408       .  A
C2772      C2775   1.486       .  S
C2773      C2774   1.399       .  A
C2773      H2785   1.082       .  S
C2774      H2786   1.083       .  S
C2775      C2776   1.347   1_565  D
C2775      H2787   1.086   1_565  S
C2776      C2777   1.483       .  S
C2776      H2788   1.086       .  S
C2777      C2778   1.402       .  A
C2777      C2782   1.407       .  A
C2778      C2779   1.396       .  A
C2778      H2789   1.083       .  S
C2779      C2780   1.405       .  A
C2779      H2790   1.083       .  S
C2780      C2781   1.406       .  A
C2781      C2782   1.401       .  A
C2781      H2791   1.083       .  S
C2782      H2792   1.082       .  S
C2793      C2794   1.407       .  A
C2793      C2798   1.406       .  A
C2794      C2795   1.403       .  A
C2794      H2807   1.083       .  S
C2795      C2796   1.411       .  A
C2795      H2808   1.079       .  S
C2796      C2797   1.405       .  A
C2796      C2799   1.498       .  S
C2797      C2798   1.399       .  A
C2797      H2809   1.083       .  S
C2798      H2810   1.083       .  S
C2799      C2800   1.352       .  D
C2799      H2811   1.085       .  S
C2800      C2801   1.494       .  S
C2800      H2812   1.082       .  S
C2801      C2802   1.406       .  A
C2801      C2806   1.408       .  A
C2802      C2803   1.401       .  A
C2802      H2813   1.083       .  S
C2803      C2804   1.405       .  A
C2803      H2814   1.083       .  S
C2804      C2805   1.408       .  A
C2805      C2806   1.401       .  A
C2805      H2815   1.083       .  S
C2806      H2816   1.081       .  S
C2817      C2818   1.405       .  A
C2817      C2822   1.406       .  A
C2818      C2819   1.400       .  A
C2818      H2831   1.083       .  S
C2819      C2820   1.405       .  A
C2819      H2832   1.083       .  S
C2820      C2821   1.408       .  A
C2820      C2823   1.488       .  S
C2821      C2822   1.395       .  A
C2821      H2833   1.081       .  S
C2822      H2834   1.083       .  S
C2823      C2824   1.349       .  D
C2823      H2835   1.083       .  S
C2824      C2825   1.490       .  S
C2824      H2836   1.085       .  S
C2825      C2826   1.405       .  A
C2825      C2830   1.409       .  A
C2826      C2827   1.397       .  A
C2826      H2837   1.083       .  S
C2827      C2828   1.405       .  A
C2827      H2838   1.083       .  S
C2828      C2829   1.406       .  A
C2829      C2830   1.398       .  A
C2829      H2839   1.083       .  S
C2830      H2840   1.080       .  S
C2841      C2842   1.408       .  A
C2841      C2846   1.405       .  A
C2842      C2843   1.400       .  A
C2842      H2855   1.083       .  S
C2843      C2844   1.403       .  A
C2843      H2856   1.084       .  S
C2844      C2845   1.407       .  A
C2844      C2847   1.488       .  S
C2845      C2846   1.398       .  A
C2845      H2857   1.082       .  S
C2846      H2858   1.083       .  S
C2847      C2848   1.350       .  D
C2847      H2859   1.084       .  S
C2848      C2849   1.491       .  S
C2848      H2860   1.086       .  S
C2849      C2850   1.406       .  A
C2849      C2854   1.408       .  A
C2850      C2851   1.399       .  A
C2850      H2861   1.084       .  S
C2851      C2852   1.405   1_545  A
C2851      H2862   1.083       .  S
C2852      C2853   1.408       .  A
C2853      C2854   1.399   1_565  A
C2853      H2863   1.083       .  S
C2854      H2864   1.080       .  S
C2865      C2866   1.405       .  A
C2865      C2870   1.406       .  A
C2866      C2867   1.395       .  A
C2866      H2879   1.083       .  S
C2867      C2868   1.403       .  A
C2867      H2880   1.084       .  S
C2868      C2869   1.408       .  A
C2868      C2871   1.485       .  S
C2869      C2870   1.401       .  A
C2869      H2881   1.081       .  S
C2870      H2882   1.083       .  S
C2871      C2872   1.349       .  D
C2871      H2883   1.086       .  S
C2872      C2873   1.487       .  S
C2872      H2884   1.084       .  S
C2873      C2874   1.406       .  A
C2873      C2878   1.405       .  A
C2874      C2875   1.394       .  A
C2874      H2885   1.082       .  S
C2875      C2876   1.405       .  A
C2875      H2886   1.083       .  S
C2876      C2877   1.406       .  A
C2877      C2878   1.402       .  A
C2877      H2887   1.083       .  S
C2878      H2888   1.083       .  S
C2889      C2890   1.406       .  A
C2889      C2894   1.405   1_455  A
C2890      C2891   1.398       .  A
C2890      H2903   1.083       .  S
C2891      C2892   1.403   1_455  A
C2891      H2904   1.083       .  S
C2892      C2893   1.406       .  A
C2892      C2895   1.484       .  S
C2893      C2894   1.395       .  A
C2893      H2905   1.082       .  S
C2894      H2906   1.083       .  S
C2895      C2896   1.348   1_565  D
C2895      H2907   1.085       .  S
C2896      C2897   1.483       .  S
C2896      H2908   1.085       .  S
C2897      C2898   1.403       .  A
C2897      C2902   1.406       .  A
C2898      C2899   1.397       .  A
C2898      H2909   1.083       .  S
C2899      C2900   1.405       .  A
C2899      H2910   1.083       .  S
C2900      C2901   1.408       .  A
C2901      C2902   1.397       .  A
C2901      H2911   1.083       .  S
C2902      H2912   1.082   1_655  S
C2913      C2914   1.408       .  A
C2913      C2918   1.407       .  A
C2914      C2915   1.401       .  A
C2914      H2927   1.083       .  S
C2915      C2916   1.404       .  A
C2915      H2928   1.083       .  S
C2916      C2917   1.408       .  A
C2916      C2919   1.492       .  S
C2917      C2918   1.402       .  A
C2917      H2929   1.082       .  S
C2918      H2930   1.083       .  S
C2919      C2920   1.349       .  D
C2919      H2931   1.085       .  S
C2920      C2921   1.494       .  S
C2920      H2932   1.086       .  S
C2921      C2922   1.404       .  A
C2921      C2926   1.410       .  A
C2922      C2923   1.399       .  A
C2922      H2933   1.084       .  S
C2923      C2924   1.407       .  A
C2923      H2934   1.083       .  S
C2924      C2925   1.408       .  A
C2925      C2926   1.404       .  A
C2925      H2935   1.083       .  S
C2926      H2936   1.081       .  S
C2937      C2938   1.406       .  A
C2937      C2942   1.406       .  A
C2938      C2939   1.399       .  A
C2938      H2951   1.083       .  S
C2939      C2940   1.403       .  A
C2939      H2952   1.084       .  S
C2940      C2941   1.407       .  A
C2940      C2943   1.486       .  S
C2941      C2942   1.399       .  A
C2941      H2953   1.082       .  S
C2942      H2954   1.083       .  S
C2943      C2944   1.349       .  D
C2943      H2955   1.084       .  S
C2944      C2945   1.489       .  S
C2944      H2956   1.086       .  S
C2945      C2946   1.403       .  A
C2945      C2950   1.409       .  A
C2946      C2947   1.397       .  A
C2946      H2957   1.083       .  S
C2947      C2948   1.406       .  A
C2947      H2958   1.083       .  S
C2948      C2949   1.406       .  A
C2949      C2950   1.400       .  A
C2949      H2959   1.083       .  S
C2950      H2960   1.081       .  S
C2961      C2962   1.406       .  A
C2961      C2966   1.405       .  A
C2962      C2963   1.396       .  A
C2962      H2975   1.083       .  S
C2963      C2964   1.403       .  A
C2963      H2976   1.083       .  S
C2964      C2965   1.411       .  A
C2964      C2967   1.491       .  S
C2965      C2966   1.400       .  A
C2965      H2977   1.080       .  S
C2966      H2978   1.083       .  S
C2967      C2968   1.347       .  D
C2967      H2979   1.085       .  S
C2968      C2969   1.488       .  S
C2968      H2980   1.083       .  S
C2969      C2970   1.401       .  A
C2969      C2974   1.409       .  A
C2970      C2971   1.395       .  A
C2970      H2981   1.084       .  S
C2971      C2972   1.407       .  A
C2971      H2982   1.083       .  S
C2972      C2973   1.407       .  A
C2973      C2974   1.403       .  A
C2973      H2983   1.083       .  S
C2974      H2984   1.082       .  S
C2985      C2986   1.406       .  A
C2985      C2990   1.405   1_565  A
C2986      C2987   1.400       .  A
C2986      H2999   1.083       .  S
C2987      C2988   1.405   1_565  A
C2987      H3000   1.083       .  S
C2988      C2989   1.410       .  A
C2988      C2991   1.493       .  S
C2989      C2990   1.402       .  A
C2989      H3001   1.081       .  S
C2990      H3002   1.083       .  S
C2991      C2992   1.351       .  D
C2991      H3003   1.084       .  S
C2992      C2993   1.496       .  S
C2992      H3004   1.085       .  S
C2993      C2994   1.404       .  A
C2993      C2998   1.410       .  A
C2994      C2995   1.400       .  A
C2994      H3005   1.083       .  S
C2995      C2996   1.407       .  A
C2995      H3006   1.083       .  S
C2996      C2997   1.407       .  A
C2997      C2998   1.403       .  A
C2997      H3007   1.083       .  S
C2998      H3008   1.081       .  S
